         489
 Cu Cu
  Cu   0.00000   0.00000   0.00000   1
  Cu   2.56000   0.00000   0.00000   1
  Cu   5.12000   0.00000   0.00000   1
  Cu   7.68000   0.00000   0.00000   1
  Cu  10.24000   0.00000   0.00000   1
  Cu  12.80000   0.00000   0.00000   1
  Cu  15.36000   0.00000   0.00000   1
  Cu  17.92000   0.00000   0.00000   1
  Cu  20.48000   0.00000   0.00000   1
  Cu   0.00000   2.56000   0.00000   1
  Cu   2.56000   2.56000   0.00000   1
  Cu   5.12000   2.56000   0.00000   1
  Cu   7.68000   2.56000   0.00000   1
  Cu  10.24000   2.56000   0.00000   1
  Cu  12.80000   2.56000   0.00000   1
  Cu  15.36000   2.56000   0.00000   1
  Cu  17.92000   2.56000   0.00000   1
  Cu  20.48000   2.56000   0.00000   1
  Cu   0.00000   5.12000   0.00000   1
  Cu   2.56000   5.12000   0.00000   1
  Cu   5.12000   5.12000   0.00000   1
  Cu   7.68000   5.12000   0.00000   1
  Cu  10.24000   5.12000   0.00000   1
  Cu  12.80000   5.12000   0.00000   1
  Cu  15.36000   5.12000   0.00000   1
  Cu  17.92000   5.12000   0.00000   1
  Cu  20.48000   5.12000   0.00000   1
  Cu   0.00000   7.68000   0.00000   1
  Cu   2.56000   7.68000   0.00000   1
  Cu   5.12000   7.68000   0.00000   1
  Cu   7.68000   7.68000   0.00000   1
  Cu  10.24000   7.68000   0.00000   1
  Cu  12.80000   7.68000   0.00000   1
  Cu  15.36000   7.68000   0.00000   1
  Cu  17.92000   7.68000   0.00000   1
  Cu  20.48000   7.68000   0.00000   1
  Cu   0.00000  10.24000   0.00000   1
  Cu   2.56000  10.24000   0.00000   1
  Cu   5.12000  10.24000   0.00000   1
  Cu   7.68000  10.24000   0.00000   1
  Cu  10.24000  10.24000   0.00000   1
  Cu  12.80000  10.24000   0.00000   1
  Cu  15.36000  10.24000   0.00000   1
  Cu  17.92000  10.24000   0.00000   1
  Cu  20.48000  10.24000   0.00000   1
  Cu   0.00000  12.80000   0.00000   1
  Cu   2.56000  12.80000   0.00000   1
  Cu   5.12000  12.80000   0.00000   1
  Cu   7.68000  12.80000   0.00000   1
  Cu  10.24000  12.80000   0.00000   1
  Cu  12.80000  12.80000   0.00000   1
  Cu  15.36000  12.80000   0.00000   1
  Cu  17.92000  12.80000   0.00000   1
  Cu  20.48000  12.80000   0.00000   1
  Cu   0.00000  15.36000   0.00000   1
  Cu   2.56000  15.36000   0.00000   1
  Cu   5.12000  15.36000   0.00000   1
  Cu   7.68000  15.36000   0.00000   1
  Cu  10.24000  15.36000   0.00000   1
  Cu  12.80000  15.36000   0.00000   1
  Cu  15.36000  15.36000   0.00000   1
  Cu  17.92000  15.36000   0.00000   1
  Cu  20.48000  15.36000   0.00000   1
  Cu   0.00000  17.92000   0.00000   1
  Cu   2.56000  17.92000   0.00000   1
  Cu   5.12000  17.92000   0.00000   1
  Cu   7.68000  17.92000   0.00000   1
  Cu  10.24000  17.92000   0.00000   1
  Cu  12.80000  17.92000   0.00000   1
  Cu  15.36000  17.92000   0.00000   1
  Cu  17.92000  17.92000   0.00000   1
  Cu  20.48000  17.92000   0.00000   1
  Cu   0.00000  20.48000   0.00000   1
  Cu   2.56000  20.48000   0.00000   1
  Cu   5.12000  20.48000   0.00000   1
  Cu   7.68000  20.48000   0.00000   1
  Cu  10.24000  20.48000   0.00000   1
  Cu  12.80000  20.48000   0.00000   1
  Cu  15.36000  20.48000   0.00000   1
  Cu  17.92000  20.48000   0.00000   1
  Cu  20.48000  20.48000   0.00000   1
  Cu   1.28000   1.28000   1.81019   1
  Cu   3.84000   1.28000   1.81019   1
  Cu   6.40000   1.28000   1.81019   1
  Cu   8.96000   1.28000   1.81019   1
  Cu  11.52000   1.28000   1.81019   1
  Cu  14.08000   1.28000   1.81019   1
  Cu  16.64000   1.28000   1.81019   1
  Cu  19.20000   1.28000   1.81019   1
  Cu   1.28000   3.84000   1.81019   1
  Cu   3.84000   3.84000   1.81019   1
  Cu   6.40000   3.84000   1.81019   1
  Cu   8.96000   3.84000   1.81019   1
  Cu  11.52000   3.84000   1.81019   1
  Cu  14.08000   3.84000   1.81019   1
  Cu  16.64000   3.84000   1.81019   1
  Cu  19.20000   3.84000   1.81019   1
  Cu   1.28000   6.40000   1.81019   1
  Cu   3.84000   6.40000   1.81019   1
  Cu   6.40000   6.40000   1.81019   1
  Cu   8.96000   6.40000   1.81019   1
  Cu  11.52000   6.40000   1.81019   1
  Cu  14.08000   6.40000   1.81019   1
  Cu  16.64000   6.40000   1.81019   1
  Cu  19.20000   6.40000   1.81019   1
  Cu   1.28000   8.96000   1.81019   1
  Cu   3.84000   8.96000   1.81019   1
  Cu   6.40000   8.96000   1.81019   1
  Cu   8.96000   8.96000   1.81019   1
  Cu  11.52000   8.96000   1.81019   1
  Cu  14.08000   8.96000   1.81019   1
  Cu  16.64000   8.96000   1.81019   1
  Cu  19.20000   8.96000   1.81019   1
  Cu   1.28000  11.52000   1.81019   1
  Cu   3.84000  11.52000   1.81019   1
  Cu   6.40000  11.52000   1.81019   1
  Cu   8.96000  11.52000   1.81019   1
  Cu  11.52000  11.52000   1.81019   1
  Cu  14.08000  11.52000   1.81019   1
  Cu  16.64000  11.52000   1.81019   1
  Cu  19.20000  11.52000   1.81019   1
  Cu   1.28000  14.08000   1.81019   1
  Cu   3.84000  14.08000   1.81019   1
  Cu   6.40000  14.08000   1.81019   1
  Cu   8.96000  14.08000   1.81019   1
  Cu  11.52000  14.08000   1.81019   1
  Cu  14.08000  14.08000   1.81019   1
  Cu  16.64000  14.08000   1.81019   1
  Cu  19.20000  14.08000   1.81019   1
  Cu   1.28000  16.64000   1.81019   1
  Cu   3.84000  16.64000   1.81019   1
  Cu   6.40000  16.64000   1.81019   1
  Cu   8.96000  16.64000   1.81019   1
  Cu  11.52000  16.64000   1.81019   1
  Cu  14.08000  16.64000   1.81019   1
  Cu  16.64000  16.64000   1.81019   1
  Cu  19.20000  16.64000   1.81019   1
  Cu   1.28000  19.20000   1.81019   1
  Cu   3.84000  19.20000   1.81019   1
  Cu   6.40000  19.20000   1.81019   1
  Cu   8.96000  19.20000   1.81019   1
  Cu  11.52000  19.20000   1.81019   1
  Cu  14.08000  19.20000   1.81019   1
  Cu  16.64000  19.20000   1.81019   1
  Cu  19.20000  19.20000   1.81019   1
  Cu   2.56000   2.56000   3.62039   1
  Cu   5.12000   2.56000   3.62039   1
  Cu   7.68000   2.56000   3.62039   1
  Cu  10.24000   2.56000   3.62039   1
  Cu  12.80000   2.56000   3.62039   1
  Cu  15.36000   2.56000   3.62039   1
  Cu  17.92000   2.56000   3.62039   1
  Cu   2.56000   5.12000   3.62039   1
  Cu   5.12000   5.12000   3.62039   1
  Cu   7.68000   5.12000   3.62039   1
  Cu  10.24000   5.12000   3.62039   1
  Cu  12.80000   5.12000   3.62039   1
  Cu  15.36000   5.12000   3.62039   1
  Cu  17.92000   5.12000   3.62039   1
  Cu   2.56000   7.68000   3.62039   1
  Cu   5.12000   7.68000   3.62039   1
  Cu   7.68000   7.68000   3.62039   1
  Cu  10.24000   7.68000   3.62039   1
  Cu  12.80000   7.68000   3.62039   1
  Cu  15.36000   7.68000   3.62039   1
  Cu  17.92000   7.68000   3.62039   1
  Cu   2.56000  10.24000   3.62039   1
  Cu   5.12000  10.24000   3.62039   1
  Cu   7.68000  10.24000   3.62039   1
  Cu  10.24000  10.24000   3.62039   1
  Cu  12.80000  10.24000   3.62039   1
  Cu  15.36000  10.24000   3.62039   1
  Cu  17.92000  10.24000   3.62039   1
  Cu   2.56000  12.80000   3.62039   1
  Cu   5.12000  12.80000   3.62039   1
  Cu   7.68000  12.80000   3.62039   1
  Cu  10.24000  12.80000   3.62039   1
  Cu  12.80000  12.80000   3.62039   1
  Cu  15.36000  12.80000   3.62039   1
  Cu  17.92000  12.80000   3.62039   1
  Cu   2.56000  15.36000   3.62039   1
  Cu   5.12000  15.36000   3.62039   1
  Cu   7.68000  15.36000   3.62039   1
  Cu  10.24000  15.36000   3.62039   1
  Cu  12.80000  15.36000   3.62039   1
  Cu  15.36000  15.36000   3.62039   1
  Cu  17.92000  15.36000   3.62039   1
  Cu   2.56000  17.92000   3.62039   1
  Cu   5.12000  17.92000   3.62039   1
  Cu   7.68000  17.92000   3.62039   1
  Cu  10.24000  17.92000   3.62039   1
  Cu  12.80000  17.92000   3.62039   1
  Cu  15.36000  17.92000   3.62039   1
  Cu  17.92000  17.92000   3.62039   1
  Cu   3.84000   3.84000   5.43058   1
  Cu   6.40000   3.84000   5.43058   1
  Cu   8.96000   3.84000   5.43058   1
  Cu  11.52000   3.84000   5.43058   1
  Cu  14.08000   3.84000   5.43058   1
  Cu  16.64000   3.84000   5.43058   1
  Cu   3.84000   6.40000   5.43058   1
  Cu   6.40000   6.40000   5.43058   1
  Cu   8.96000   6.40000   5.43058   1
  Cu  11.52000   6.40000   5.43058   1
  Cu  14.08000   6.40000   5.43058   1
  Cu  16.64000   6.40000   5.43058   1
  Cu   3.84000   8.96000   5.43058   1
  Cu   6.40000   8.96000   5.43058   1
  Cu   8.96000   8.96000   5.43058   1
  Cu  11.52000   8.96000   5.43058   1
  Cu  14.08000   8.96000   5.43058   1
  Cu  16.64000   8.96000   5.43058   1
  Cu   3.84000  11.52000   5.43058   1
  Cu   6.40000  11.52000   5.43058   1
  Cu   8.96000  11.52000   5.43058   1
  Cu  11.52000  11.52000   5.43058   1
  Cu  14.08000  11.52000   5.43058   1
  Cu  16.64000  11.52000   5.43058   1
  Cu   3.84000  14.08000   5.43058   1
  Cu   6.40000  14.08000   5.43058   1
  Cu   8.96000  14.08000   5.43058   1
  Cu  11.52000  14.08000   5.43058   1
  Cu  14.08000  14.08000   5.43058   1
  Cu  16.64000  14.08000   5.43058   1
  Cu   3.84000  16.64000   5.43058   1
  Cu   6.40000  16.64000   5.43058   1
  Cu   8.96000  16.64000   5.43058   1
  Cu  11.52000  16.64000   5.43058   1
  Cu  14.08000  16.64000   5.43058   1
  Cu  16.64000  16.64000   5.43058   1
  Cu   5.12000   5.12000   7.24077   1
  Cu   7.68000   5.12000   7.24077   1
  Cu  10.24000   5.12000   7.24077   1
  Cu  12.80000   5.12000   7.24077   1
  Cu  15.36000   5.12000   7.24077   1
  Cu   5.12000   7.68000   7.24077   1
  Cu   7.68000   7.68000   7.24077   1
  Cu  10.24000   7.68000   7.24077   1
  Cu  12.80000   7.68000   7.24077   1
  Cu  15.36000   7.68000   7.24077   1
  Cu   5.12000  10.24000   7.24077   1
  Cu   7.68000  10.24000   7.24077   1
  Cu  10.24000  10.24000   7.24077   1
  Cu  12.80000  10.24000   7.24077   1
  Cu  15.36000  10.24000   7.24077   1
  Cu   5.12000  12.80000   7.24077   1
  Cu   7.68000  12.80000   7.24077   1
  Cu  10.24000  12.80000   7.24077   1
  Cu  12.80000  12.80000   7.24077   1
  Cu  15.36000  12.80000   7.24077   1
  Cu   5.12000  15.36000   7.24077   1
  Cu   7.68000  15.36000   7.24077   1
  Cu  10.24000  15.36000   7.24077   1
  Cu  12.80000  15.36000   7.24077   1
  Cu  15.36000  15.36000   7.24077   1
  Cu   6.40000   6.40000   9.05097   1
  Cu   8.96000   6.40000   9.05097   1
  Cu  11.52000   6.40000   9.05097   1
  Cu  14.08000   6.40000   9.05097   1
  Cu   6.40000   8.96000   9.05097   1
  Cu   8.96000   8.96000   9.05097   1
  Cu  11.52000   8.96000   9.05097   1
  Cu  14.08000   8.96000   9.05097   1
  Cu   6.40000  11.52000   9.05097   1
  Cu   8.96000  11.52000   9.05097   1
  Cu  11.52000  11.52000   9.05097   1
  Cu  14.08000  11.52000   9.05097   1
  Cu   6.40000  14.08000   9.05097   1
  Cu   8.96000  14.08000   9.05097   1
  Cu  11.52000  14.08000   9.05097   1
  Cu  14.08000  14.08000   9.05097   1
  Cu   7.68000   7.68000  10.86116   1
  Cu  10.24000   7.68000  10.86116   1
  Cu  12.80000   7.68000  10.86116   1
  Cu   7.68000  10.24000  10.86116   1
  Cu  10.24000  10.24000  10.86116   1
  Cu  12.80000  10.24000  10.86116   1
  Cu   7.68000  12.80000  10.86116   1
  Cu  10.24000  12.80000  10.86116   1
  Cu  12.80000  12.80000  10.86116   1
  Cu   8.96000   8.96000  12.67135   1
  Cu  11.52000   8.96000  12.67135   1
  Cu   8.96000  11.52000  12.67135   1
  Cu  11.52000  11.52000  12.67135   1
  Cu  10.24000  10.24000  14.48155   1
  Cu   1.28000   1.28000  -1.81019   1
  Cu   3.84000   1.28000  -1.81019   1
  Cu   6.40000   1.28000  -1.81019   1
  Cu   8.96000   1.28000  -1.81019   1
  Cu  11.52000   1.28000  -1.81019   1
  Cu  14.08000   1.28000  -1.81019   1
  Cu  16.64000   1.28000  -1.81019   1
  Cu  19.20000   1.28000  -1.81019   1
  Cu   1.28000   3.84000  -1.81019   1
  Cu   3.84000   3.84000  -1.81019   1
  Cu   6.40000   3.84000  -1.81019   1
  Cu   8.96000   3.84000  -1.81019   1
  Cu  11.52000   3.84000  -1.81019   1
  Cu  14.08000   3.84000  -1.81019   1
  Cu  16.64000   3.84000  -1.81019   1
  Cu  19.20000   3.84000  -1.81019   1
  Cu   1.28000   6.40000  -1.81019   1
  Cu   3.84000   6.40000  -1.81019   1
  Cu   6.40000   6.40000  -1.81019   1
  Cu   8.96000   6.40000  -1.81019   1
  Cu  11.52000   6.40000  -1.81019   1
  Cu  14.08000   6.40000  -1.81019   1
  Cu  16.64000   6.40000  -1.81019   1
  Cu  19.20000   6.40000  -1.81019   1
  Cu   1.28000   8.96000  -1.81019   1
  Cu   3.84000   8.96000  -1.81019   1
  Cu   6.40000   8.96000  -1.81019   1
  Cu   8.96000   8.96000  -1.81019   1
  Cu  11.52000   8.96000  -1.81019   1
  Cu  14.08000   8.96000  -1.81019   1
  Cu  16.64000   8.96000  -1.81019   1
  Cu  19.20000   8.96000  -1.81019   1
  Cu   1.28000  11.52000  -1.81019   1
  Cu   3.84000  11.52000  -1.81019   1
  Cu   6.40000  11.52000  -1.81019   1
  Cu   8.96000  11.52000  -1.81019   1
  Cu  11.52000  11.52000  -1.81019   1
  Cu  14.08000  11.52000  -1.81019   1
  Cu  16.64000  11.52000  -1.81019   1
  Cu  19.20000  11.52000  -1.81019   1
  Cu   1.28000  14.08000  -1.81019   1
  Cu   3.84000  14.08000  -1.81019   1
  Cu   6.40000  14.08000  -1.81019   1
  Cu   8.96000  14.08000  -1.81019   1
  Cu  11.52000  14.08000  -1.81019   1
  Cu  14.08000  14.08000  -1.81019   1
  Cu  16.64000  14.08000  -1.81019   1
  Cu  19.20000  14.08000  -1.81019   1
  Cu   1.28000  16.64000  -1.81019   1
  Cu   3.84000  16.64000  -1.81019   1
  Cu   6.40000  16.64000  -1.81019   1
  Cu   8.96000  16.64000  -1.81019   1
  Cu  11.52000  16.64000  -1.81019   1
  Cu  14.08000  16.64000  -1.81019   1
  Cu  16.64000  16.64000  -1.81019   1
  Cu  19.20000  16.64000  -1.81019   1
  Cu   1.28000  19.20000  -1.81019   1
  Cu   3.84000  19.20000  -1.81019   1
  Cu   6.40000  19.20000  -1.81019   1
  Cu   8.96000  19.20000  -1.81019   1
  Cu  11.52000  19.20000  -1.81019   1
  Cu  14.08000  19.20000  -1.81019   1
  Cu  16.64000  19.20000  -1.81019   1
  Cu  19.20000  19.20000  -1.81019   1
  Cu   2.56000   2.56000  -3.62039   1
  Cu   5.12000   2.56000  -3.62039   1
  Cu   7.68000   2.56000  -3.62039   1
  Cu  10.24000   2.56000  -3.62039   1
  Cu  12.80000   2.56000  -3.62039   1
  Cu  15.36000   2.56000  -3.62039   1
  Cu  17.92000   2.56000  -3.62039   1
  Cu   2.56000   5.12000  -3.62039   1
  Cu   5.12000   5.12000  -3.62039   1
  Cu   7.68000   5.12000  -3.62039   1
  Cu  10.24000   5.12000  -3.62039   1
  Cu  12.80000   5.12000  -3.62039   1
  Cu  15.36000   5.12000  -3.62039   1
  Cu  17.92000   5.12000  -3.62039   1
  Cu   2.56000   7.68000  -3.62039   1
  Cu   5.12000   7.68000  -3.62039   1
  Cu   7.68000   7.68000  -3.62039   1
  Cu  10.24000   7.68000  -3.62039   1
  Cu  12.80000   7.68000  -3.62039   1
  Cu  15.36000   7.68000  -3.62039   1
  Cu  17.92000   7.68000  -3.62039   1
  Cu   2.56000  10.24000  -3.62039   1
  Cu   5.12000  10.24000  -3.62039   1
  Cu   7.68000  10.24000  -3.62039   1
  Cu  10.24000  10.24000  -3.62039   1
  Cu  12.80000  10.24000  -3.62039   1
  Cu  15.36000  10.24000  -3.62039   1
  Cu  17.92000  10.24000  -3.62039   1
  Cu   2.56000  12.80000  -3.62039   1
  Cu   5.12000  12.80000  -3.62039   1
  Cu   7.68000  12.80000  -3.62039   1
  Cu  10.24000  12.80000  -3.62039   1
  Cu  12.80000  12.80000  -3.62039   1
  Cu  15.36000  12.80000  -3.62039   1
  Cu  17.92000  12.80000  -3.62039   1
  Cu   2.56000  15.36000  -3.62039   1
  Cu   5.12000  15.36000  -3.62039   1
  Cu   7.68000  15.36000  -3.62039   1
  Cu  10.24000  15.36000  -3.62039   1
  Cu  12.80000  15.36000  -3.62039   1
  Cu  15.36000  15.36000  -3.62039   1
  Cu  17.92000  15.36000  -3.62039   1
  Cu   2.56000  17.92000  -3.62039   1
  Cu   5.12000  17.92000  -3.62039   1
  Cu   7.68000  17.92000  -3.62039   1
  Cu  10.24000  17.92000  -3.62039   1
  Cu  12.80000  17.92000  -3.62039   1
  Cu  15.36000  17.92000  -3.62039   1
  Cu  17.92000  17.92000  -3.62039   1
  Cu   3.84000   3.84000  -5.43058   1
  Cu   6.40000   3.84000  -5.43058   1
  Cu   8.96000   3.84000  -5.43058   1
  Cu  11.52000   3.84000  -5.43058   1
  Cu  14.08000   3.84000  -5.43058   1
  Cu  16.64000   3.84000  -5.43058   1
  Cu   3.84000   6.40000  -5.43058   1
  Cu   6.40000   6.40000  -5.43058   1
  Cu   8.96000   6.40000  -5.43058   1
  Cu  11.52000   6.40000  -5.43058   1
  Cu  14.08000   6.40000  -5.43058   1
  Cu  16.64000   6.40000  -5.43058   1
  Cu   3.84000   8.96000  -5.43058   1
  Cu   6.40000   8.96000  -5.43058   1
  Cu   8.96000   8.96000  -5.43058   1
  Cu  11.52000   8.96000  -5.43058   1
  Cu  14.08000   8.96000  -5.43058   1
  Cu  16.64000   8.96000  -5.43058   1
  Cu   3.84000  11.52000  -5.43058   1
  Cu   6.40000  11.52000  -5.43058   1
  Cu   8.96000  11.52000  -5.43058   1
  Cu  11.52000  11.52000  -5.43058   1
  Cu  14.08000  11.52000  -5.43058   1
  Cu  16.64000  11.52000  -5.43058   1
  Cu   3.84000  14.08000  -5.43058   1
  Cu   6.40000  14.08000  -5.43058   1
  Cu   8.96000  14.08000  -5.43058   1
  Cu  11.52000  14.08000  -5.43058   1
  Cu  14.08000  14.08000  -5.43058   1
  Cu  16.64000  14.08000  -5.43058   1
  Cu   3.84000  16.64000  -5.43058   1
  Cu   6.40000  16.64000  -5.43058   1
  Cu   8.96000  16.64000  -5.43058   1
  Cu  11.52000  16.64000  -5.43058   1
  Cu  14.08000  16.64000  -5.43058   1
  Cu  16.64000  16.64000  -5.43058   1
  Cu   5.12000   5.12000  -7.24077   1
  Cu   7.68000   5.12000  -7.24077   1
  Cu  10.24000   5.12000  -7.24077   1
  Cu  12.80000   5.12000  -7.24077   1
  Cu  15.36000   5.12000  -7.24077   1
  Cu   5.12000   7.68000  -7.24077   1
  Cu   7.68000   7.68000  -7.24077   1
  Cu  10.24000   7.68000  -7.24077   1
  Cu  12.80000   7.68000  -7.24077   1
  Cu  15.36000   7.68000  -7.24077   1
  Cu   5.12000  10.24000  -7.24077   1
  Cu   7.68000  10.24000  -7.24077   1
  Cu  10.24000  10.24000  -7.24077   1
  Cu  12.80000  10.24000  -7.24077   1
  Cu  15.36000  10.24000  -7.24077   1
  Cu   5.12000  12.80000  -7.24077   1
  Cu   7.68000  12.80000  -7.24077   1
  Cu  10.24000  12.80000  -7.24077   1
  Cu  12.80000  12.80000  -7.24077   1
  Cu  15.36000  12.80000  -7.24077   1
  Cu   5.12000  15.36000  -7.24077   1
  Cu   7.68000  15.36000  -7.24077   1
  Cu  10.24000  15.36000  -7.24077   1
  Cu  12.80000  15.36000  -7.24077   1
  Cu  15.36000  15.36000  -7.24077   1
  Cu   6.40000   6.40000  -9.05097   1
  Cu   8.96000   6.40000  -9.05097   1
  Cu  11.52000   6.40000  -9.05097   1
  Cu  14.08000   6.40000  -9.05097   1
  Cu   6.40000   8.96000  -9.05097   1
  Cu   8.96000   8.96000  -9.05097   1
  Cu  11.52000   8.96000  -9.05097   1
  Cu  14.08000   8.96000  -9.05097   1
  Cu   6.40000  11.52000  -9.05097   1
  Cu   8.96000  11.52000  -9.05097   1
  Cu  11.52000  11.52000  -9.05097   1
  Cu  14.08000  11.52000  -9.05097   1
  Cu   6.40000  14.08000  -9.05097   1
  Cu   8.96000  14.08000  -9.05097   1
  Cu  11.52000  14.08000  -9.05097   1
  Cu  14.08000  14.08000  -9.05097   1
  Cu   7.68000   7.68000 -10.86116   1
  Cu  10.24000   7.68000 -10.86116   1
  Cu  12.80000   7.68000 -10.86116   1
  Cu   7.68000  10.24000 -10.86116   1
  Cu  10.24000  10.24000 -10.86116   1
  Cu  12.80000  10.24000 -10.86116   1
  Cu   7.68000  12.80000 -10.86116   1
  Cu  10.24000  12.80000 -10.86116   1
  Cu  12.80000  12.80000 -10.86116   1
  Cu   8.96000   8.96000 -12.67135   1
  Cu  11.52000   8.96000 -12.67135   1
  Cu   8.96000  11.52000 -12.67135   1
  Cu  11.52000  11.52000 -12.67135   1
  Cu  10.24000  10.24000 -14.48155   1
