         891
 Cu Cu
  Cu   0.00000   0.00000   0.00000   1
  Cu   2.56000   0.00000   0.00000   1
  Cu   5.12000   0.00000   0.00000   1
  Cu   7.68000   0.00000   0.00000   1
  Cu  10.24000   0.00000   0.00000   1
  Cu  12.80000   0.00000   0.00000   1
  Cu  15.36000   0.00000   0.00000   1
  Cu  17.92000   0.00000   0.00000   1
  Cu  20.48000   0.00000   0.00000   1
  Cu  23.04000   0.00000   0.00000   1
  Cu  25.60000   0.00000   0.00000   1
  Cu   0.00000   2.56000   0.00000   1
  Cu   2.56000   2.56000   0.00000   1
  Cu   5.12000   2.56000   0.00000   1
  Cu   7.68000   2.56000   0.00000   1
  Cu  10.24000   2.56000   0.00000   1
  Cu  12.80000   2.56000   0.00000   1
  Cu  15.36000   2.56000   0.00000   1
  Cu  17.92000   2.56000   0.00000   1
  Cu  20.48000   2.56000   0.00000   1
  Cu  23.04000   2.56000   0.00000   1
  Cu  25.60000   2.56000   0.00000   1
  Cu   0.00000   5.12000   0.00000   1
  Cu   2.56000   5.12000   0.00000   1
  Cu   5.12000   5.12000   0.00000   1
  Cu   7.68000   5.12000   0.00000   1
  Cu  10.24000   5.12000   0.00000   1
  Cu  12.80000   5.12000   0.00000   1
  Cu  15.36000   5.12000   0.00000   1
  Cu  17.92000   5.12000   0.00000   1
  Cu  20.48000   5.12000   0.00000   1
  Cu  23.04000   5.12000   0.00000   1
  Cu  25.60000   5.12000   0.00000   1
  Cu   0.00000   7.68000   0.00000   1
  Cu   2.56000   7.68000   0.00000   1
  Cu   5.12000   7.68000   0.00000   1
  Cu   7.68000   7.68000   0.00000   1
  Cu  10.24000   7.68000   0.00000   1
  Cu  12.80000   7.68000   0.00000   1
  Cu  15.36000   7.68000   0.00000   1
  Cu  17.92000   7.68000   0.00000   1
  Cu  20.48000   7.68000   0.00000   1
  Cu  23.04000   7.68000   0.00000   1
  Cu  25.60000   7.68000   0.00000   1
  Cu   0.00000  10.24000   0.00000   1
  Cu   2.56000  10.24000   0.00000   1
  Cu   5.12000  10.24000   0.00000   1
  Cu   7.68000  10.24000   0.00000   1
  Cu  10.24000  10.24000   0.00000   1
  Cu  12.80000  10.24000   0.00000   1
  Cu  15.36000  10.24000   0.00000   1
  Cu  17.92000  10.24000   0.00000   1
  Cu  20.48000  10.24000   0.00000   1
  Cu  23.04000  10.24000   0.00000   1
  Cu  25.60000  10.24000   0.00000   1
  Cu   0.00000  12.80000   0.00000   1
  Cu   2.56000  12.80000   0.00000   1
  Cu   5.12000  12.80000   0.00000   1
  Cu   7.68000  12.80000   0.00000   1
  Cu  10.24000  12.80000   0.00000   1
  Cu  12.80000  12.80000   0.00000   1
  Cu  15.36000  12.80000   0.00000   1
  Cu  17.92000  12.80000   0.00000   1
  Cu  20.48000  12.80000   0.00000   1
  Cu  23.04000  12.80000   0.00000   1
  Cu  25.60000  12.80000   0.00000   1
  Cu   0.00000  15.36000   0.00000   1
  Cu   2.56000  15.36000   0.00000   1
  Cu   5.12000  15.36000   0.00000   1
  Cu   7.68000  15.36000   0.00000   1
  Cu  10.24000  15.36000   0.00000   1
  Cu  12.80000  15.36000   0.00000   1
  Cu  15.36000  15.36000   0.00000   1
  Cu  17.92000  15.36000   0.00000   1
  Cu  20.48000  15.36000   0.00000   1
  Cu  23.04000  15.36000   0.00000   1
  Cu  25.60000  15.36000   0.00000   1
  Cu   0.00000  17.92000   0.00000   1
  Cu   2.56000  17.92000   0.00000   1
  Cu   5.12000  17.92000   0.00000   1
  Cu   7.68000  17.92000   0.00000   1
  Cu  10.24000  17.92000   0.00000   1
  Cu  12.80000  17.92000   0.00000   1
  Cu  15.36000  17.92000   0.00000   1
  Cu  17.92000  17.92000   0.00000   1
  Cu  20.48000  17.92000   0.00000   1
  Cu  23.04000  17.92000   0.00000   1
  Cu  25.60000  17.92000   0.00000   1
  Cu   0.00000  20.48000   0.00000   1
  Cu   2.56000  20.48000   0.00000   1
  Cu   5.12000  20.48000   0.00000   1
  Cu   7.68000  20.48000   0.00000   1
  Cu  10.24000  20.48000   0.00000   1
  Cu  12.80000  20.48000   0.00000   1
  Cu  15.36000  20.48000   0.00000   1
  Cu  17.92000  20.48000   0.00000   1
  Cu  20.48000  20.48000   0.00000   1
  Cu  23.04000  20.48000   0.00000   1
  Cu  25.60000  20.48000   0.00000   1
  Cu   0.00000  23.04000   0.00000   1
  Cu   2.56000  23.04000   0.00000   1
  Cu   5.12000  23.04000   0.00000   1
  Cu   7.68000  23.04000   0.00000   1
  Cu  10.24000  23.04000   0.00000   1
  Cu  12.80000  23.04000   0.00000   1
  Cu  15.36000  23.04000   0.00000   1
  Cu  17.92000  23.04000   0.00000   1
  Cu  20.48000  23.04000   0.00000   1
  Cu  23.04000  23.04000   0.00000   1
  Cu  25.60000  23.04000   0.00000   1
  Cu   0.00000  25.60000   0.00000   1
  Cu   2.56000  25.60000   0.00000   1
  Cu   5.12000  25.60000   0.00000   1
  Cu   7.68000  25.60000   0.00000   1
  Cu  10.24000  25.60000   0.00000   1
  Cu  12.80000  25.60000   0.00000   1
  Cu  15.36000  25.60000   0.00000   1
  Cu  17.92000  25.60000   0.00000   1
  Cu  20.48000  25.60000   0.00000   1
  Cu  23.04000  25.60000   0.00000   1
  Cu  25.60000  25.60000   0.00000   1
  Cu   1.28000   1.28000   1.81019   1
  Cu   3.84000   1.28000   1.81019   1
  Cu   6.40000   1.28000   1.81019   1
  Cu   8.96000   1.28000   1.81019   1
  Cu  11.52000   1.28000   1.81019   1
  Cu  14.08000   1.28000   1.81019   1
  Cu  16.64000   1.28000   1.81019   1
  Cu  19.20000   1.28000   1.81019   1
  Cu  21.76000   1.28000   1.81019   1
  Cu  24.32000   1.28000   1.81019   1
  Cu   1.28000   3.84000   1.81019   1
  Cu   3.84000   3.84000   1.81019   1
  Cu   6.40000   3.84000   1.81019   1
  Cu   8.96000   3.84000   1.81019   1
  Cu  11.52000   3.84000   1.81019   1
  Cu  14.08000   3.84000   1.81019   1
  Cu  16.64000   3.84000   1.81019   1
  Cu  19.20000   3.84000   1.81019   1
  Cu  21.76000   3.84000   1.81019   1
  Cu  24.32000   3.84000   1.81019   1
  Cu   1.28000   6.40000   1.81019   1
  Cu   3.84000   6.40000   1.81019   1
  Cu   6.40000   6.40000   1.81019   1
  Cu   8.96000   6.40000   1.81019   1
  Cu  11.52000   6.40000   1.81019   1
  Cu  14.08000   6.40000   1.81019   1
  Cu  16.64000   6.40000   1.81019   1
  Cu  19.20000   6.40000   1.81019   1
  Cu  21.76000   6.40000   1.81019   1
  Cu  24.32000   6.40000   1.81019   1
  Cu   1.28000   8.96000   1.81019   1
  Cu   3.84000   8.96000   1.81019   1
  Cu   6.40000   8.96000   1.81019   1
  Cu   8.96000   8.96000   1.81019   1
  Cu  11.52000   8.96000   1.81019   1
  Cu  14.08000   8.96000   1.81019   1
  Cu  16.64000   8.96000   1.81019   1
  Cu  19.20000   8.96000   1.81019   1
  Cu  21.76000   8.96000   1.81019   1
  Cu  24.32000   8.96000   1.81019   1
  Cu   1.28000  11.52000   1.81019   1
  Cu   3.84000  11.52000   1.81019   1
  Cu   6.40000  11.52000   1.81019   1
  Cu   8.96000  11.52000   1.81019   1
  Cu  11.52000  11.52000   1.81019   1
  Cu  14.08000  11.52000   1.81019   1
  Cu  16.64000  11.52000   1.81019   1
  Cu  19.20000  11.52000   1.81019   1
  Cu  21.76000  11.52000   1.81019   1
  Cu  24.32000  11.52000   1.81019   1
  Cu   1.28000  14.08000   1.81019   1
  Cu   3.84000  14.08000   1.81019   1
  Cu   6.40000  14.08000   1.81019   1
  Cu   8.96000  14.08000   1.81019   1
  Cu  11.52000  14.08000   1.81019   1
  Cu  14.08000  14.08000   1.81019   1
  Cu  16.64000  14.08000   1.81019   1
  Cu  19.20000  14.08000   1.81019   1
  Cu  21.76000  14.08000   1.81019   1
  Cu  24.32000  14.08000   1.81019   1
  Cu   1.28000  16.64000   1.81019   1
  Cu   3.84000  16.64000   1.81019   1
  Cu   6.40000  16.64000   1.81019   1
  Cu   8.96000  16.64000   1.81019   1
  Cu  11.52000  16.64000   1.81019   1
  Cu  14.08000  16.64000   1.81019   1
  Cu  16.64000  16.64000   1.81019   1
  Cu  19.20000  16.64000   1.81019   1
  Cu  21.76000  16.64000   1.81019   1
  Cu  24.32000  16.64000   1.81019   1
  Cu   1.28000  19.20000   1.81019   1
  Cu   3.84000  19.20000   1.81019   1
  Cu   6.40000  19.20000   1.81019   1
  Cu   8.96000  19.20000   1.81019   1
  Cu  11.52000  19.20000   1.81019   1
  Cu  14.08000  19.20000   1.81019   1
  Cu  16.64000  19.20000   1.81019   1
  Cu  19.20000  19.20000   1.81019   1
  Cu  21.76000  19.20000   1.81019   1
  Cu  24.32000  19.20000   1.81019   1
  Cu   1.28000  21.76000   1.81019   1
  Cu   3.84000  21.76000   1.81019   1
  Cu   6.40000  21.76000   1.81019   1
  Cu   8.96000  21.76000   1.81019   1
  Cu  11.52000  21.76000   1.81019   1
  Cu  14.08000  21.76000   1.81019   1
  Cu  16.64000  21.76000   1.81019   1
  Cu  19.20000  21.76000   1.81019   1
  Cu  21.76000  21.76000   1.81019   1
  Cu  24.32000  21.76000   1.81019   1
  Cu   1.28000  24.32000   1.81019   1
  Cu   3.84000  24.32000   1.81019   1
  Cu   6.40000  24.32000   1.81019   1
  Cu   8.96000  24.32000   1.81019   1
  Cu  11.52000  24.32000   1.81019   1
  Cu  14.08000  24.32000   1.81019   1
  Cu  16.64000  24.32000   1.81019   1
  Cu  19.20000  24.32000   1.81019   1
  Cu  21.76000  24.32000   1.81019   1
  Cu  24.32000  24.32000   1.81019   1
  Cu   2.56000   2.56000   3.62039   1
  Cu   5.12000   2.56000   3.62039   1
  Cu   7.68000   2.56000   3.62039   1
  Cu  10.24000   2.56000   3.62039   1
  Cu  12.80000   2.56000   3.62039   1
  Cu  15.36000   2.56000   3.62039   1
  Cu  17.92000   2.56000   3.62039   1
  Cu  20.48000   2.56000   3.62039   1
  Cu  23.04000   2.56000   3.62039   1
  Cu   2.56000   5.12000   3.62039   1
  Cu   5.12000   5.12000   3.62039   1
  Cu   7.68000   5.12000   3.62039   1
  Cu  10.24000   5.12000   3.62039   1
  Cu  12.80000   5.12000   3.62039   1
  Cu  15.36000   5.12000   3.62039   1
  Cu  17.92000   5.12000   3.62039   1
  Cu  20.48000   5.12000   3.62039   1
  Cu  23.04000   5.12000   3.62039   1
  Cu   2.56000   7.68000   3.62039   1
  Cu   5.12000   7.68000   3.62039   1
  Cu   7.68000   7.68000   3.62039   1
  Cu  10.24000   7.68000   3.62039   1
  Cu  12.80000   7.68000   3.62039   1
  Cu  15.36000   7.68000   3.62039   1
  Cu  17.92000   7.68000   3.62039   1
  Cu  20.48000   7.68000   3.62039   1
  Cu  23.04000   7.68000   3.62039   1
  Cu   2.56000  10.24000   3.62039   1
  Cu   5.12000  10.24000   3.62039   1
  Cu   7.68000  10.24000   3.62039   1
  Cu  10.24000  10.24000   3.62039   1
  Cu  12.80000  10.24000   3.62039   1
  Cu  15.36000  10.24000   3.62039   1
  Cu  17.92000  10.24000   3.62039   1
  Cu  20.48000  10.24000   3.62039   1
  Cu  23.04000  10.24000   3.62039   1
  Cu   2.56000  12.80000   3.62039   1
  Cu   5.12000  12.80000   3.62039   1
  Cu   7.68000  12.80000   3.62039   1
  Cu  10.24000  12.80000   3.62039   1
  Cu  12.80000  12.80000   3.62039   1
  Cu  15.36000  12.80000   3.62039   1
  Cu  17.92000  12.80000   3.62039   1
  Cu  20.48000  12.80000   3.62039   1
  Cu  23.04000  12.80000   3.62039   1
  Cu   2.56000  15.36000   3.62039   1
  Cu   5.12000  15.36000   3.62039   1
  Cu   7.68000  15.36000   3.62039   1
  Cu  10.24000  15.36000   3.62039   1
  Cu  12.80000  15.36000   3.62039   1
  Cu  15.36000  15.36000   3.62039   1
  Cu  17.92000  15.36000   3.62039   1
  Cu  20.48000  15.36000   3.62039   1
  Cu  23.04000  15.36000   3.62039   1
  Cu   2.56000  17.92000   3.62039   1
  Cu   5.12000  17.92000   3.62039   1
  Cu   7.68000  17.92000   3.62039   1
  Cu  10.24000  17.92000   3.62039   1
  Cu  12.80000  17.92000   3.62039   1
  Cu  15.36000  17.92000   3.62039   1
  Cu  17.92000  17.92000   3.62039   1
  Cu  20.48000  17.92000   3.62039   1
  Cu  23.04000  17.92000   3.62039   1
  Cu   2.56000  20.48000   3.62039   1
  Cu   5.12000  20.48000   3.62039   1
  Cu   7.68000  20.48000   3.62039   1
  Cu  10.24000  20.48000   3.62039   1
  Cu  12.80000  20.48000   3.62039   1
  Cu  15.36000  20.48000   3.62039   1
  Cu  17.92000  20.48000   3.62039   1
  Cu  20.48000  20.48000   3.62039   1
  Cu  23.04000  20.48000   3.62039   1
  Cu   2.56000  23.04000   3.62039   1
  Cu   5.12000  23.04000   3.62039   1
  Cu   7.68000  23.04000   3.62039   1
  Cu  10.24000  23.04000   3.62039   1
  Cu  12.80000  23.04000   3.62039   1
  Cu  15.36000  23.04000   3.62039   1
  Cu  17.92000  23.04000   3.62039   1
  Cu  20.48000  23.04000   3.62039   1
  Cu  23.04000  23.04000   3.62039   1
  Cu   3.84000   3.84000   5.43058   1
  Cu   6.40000   3.84000   5.43058   1
  Cu   8.96000   3.84000   5.43058   1
  Cu  11.52000   3.84000   5.43058   1
  Cu  14.08000   3.84000   5.43058   1
  Cu  16.64000   3.84000   5.43058   1
  Cu  19.20000   3.84000   5.43058   1
  Cu  21.76000   3.84000   5.43058   1
  Cu   3.84000   6.40000   5.43058   1
  Cu   6.40000   6.40000   5.43058   1
  Cu   8.96000   6.40000   5.43058   1
  Cu  11.52000   6.40000   5.43058   1
  Cu  14.08000   6.40000   5.43058   1
  Cu  16.64000   6.40000   5.43058   1
  Cu  19.20000   6.40000   5.43058   1
  Cu  21.76000   6.40000   5.43058   1
  Cu   3.84000   8.96000   5.43058   1
  Cu   6.40000   8.96000   5.43058   1
  Cu   8.96000   8.96000   5.43058   1
  Cu  11.52000   8.96000   5.43058   1
  Cu  14.08000   8.96000   5.43058   1
  Cu  16.64000   8.96000   5.43058   1
  Cu  19.20000   8.96000   5.43058   1
  Cu  21.76000   8.96000   5.43058   1
  Cu   3.84000  11.52000   5.43058   1
  Cu   6.40000  11.52000   5.43058   1
  Cu   8.96000  11.52000   5.43058   1
  Cu  11.52000  11.52000   5.43058   1
  Cu  14.08000  11.52000   5.43058   1
  Cu  16.64000  11.52000   5.43058   1
  Cu  19.20000  11.52000   5.43058   1
  Cu  21.76000  11.52000   5.43058   1
  Cu   3.84000  14.08000   5.43058   1
  Cu   6.40000  14.08000   5.43058   1
  Cu   8.96000  14.08000   5.43058   1
  Cu  11.52000  14.08000   5.43058   1
  Cu  14.08000  14.08000   5.43058   1
  Cu  16.64000  14.08000   5.43058   1
  Cu  19.20000  14.08000   5.43058   1
  Cu  21.76000  14.08000   5.43058   1
  Cu   3.84000  16.64000   5.43058   1
  Cu   6.40000  16.64000   5.43058   1
  Cu   8.96000  16.64000   5.43058   1
  Cu  11.52000  16.64000   5.43058   1
  Cu  14.08000  16.64000   5.43058   1
  Cu  16.64000  16.64000   5.43058   1
  Cu  19.20000  16.64000   5.43058   1
  Cu  21.76000  16.64000   5.43058   1
  Cu   3.84000  19.20000   5.43058   1
  Cu   6.40000  19.20000   5.43058   1
  Cu   8.96000  19.20000   5.43058   1
  Cu  11.52000  19.20000   5.43058   1
  Cu  14.08000  19.20000   5.43058   1
  Cu  16.64000  19.20000   5.43058   1
  Cu  19.20000  19.20000   5.43058   1
  Cu  21.76000  19.20000   5.43058   1
  Cu   3.84000  21.76000   5.43058   1
  Cu   6.40000  21.76000   5.43058   1
  Cu   8.96000  21.76000   5.43058   1
  Cu  11.52000  21.76000   5.43058   1
  Cu  14.08000  21.76000   5.43058   1
  Cu  16.64000  21.76000   5.43058   1
  Cu  19.20000  21.76000   5.43058   1
  Cu  21.76000  21.76000   5.43058   1
  Cu   5.12000   5.12000   7.24077   1
  Cu   7.68000   5.12000   7.24077   1
  Cu  10.24000   5.12000   7.24077   1
  Cu  12.80000   5.12000   7.24077   1
  Cu  15.36000   5.12000   7.24077   1
  Cu  17.92000   5.12000   7.24077   1
  Cu  20.48000   5.12000   7.24077   1
  Cu   5.12000   7.68000   7.24077   1
  Cu   7.68000   7.68000   7.24077   1
  Cu  10.24000   7.68000   7.24077   1
  Cu  12.80000   7.68000   7.24077   1
  Cu  15.36000   7.68000   7.24077   1
  Cu  17.92000   7.68000   7.24077   1
  Cu  20.48000   7.68000   7.24077   1
  Cu   5.12000  10.24000   7.24077   1
  Cu   7.68000  10.24000   7.24077   1
  Cu  10.24000  10.24000   7.24077   1
  Cu  12.80000  10.24000   7.24077   1
  Cu  15.36000  10.24000   7.24077   1
  Cu  17.92000  10.24000   7.24077   1
  Cu  20.48000  10.24000   7.24077   1
  Cu   5.12000  12.80000   7.24077   1
  Cu   7.68000  12.80000   7.24077   1
  Cu  10.24000  12.80000   7.24077   1
  Cu  12.80000  12.80000   7.24077   1
  Cu  15.36000  12.80000   7.24077   1
  Cu  17.92000  12.80000   7.24077   1
  Cu  20.48000  12.80000   7.24077   1
  Cu   5.12000  15.36000   7.24077   1
  Cu   7.68000  15.36000   7.24077   1
  Cu  10.24000  15.36000   7.24077   1
  Cu  12.80000  15.36000   7.24077   1
  Cu  15.36000  15.36000   7.24077   1
  Cu  17.92000  15.36000   7.24077   1
  Cu  20.48000  15.36000   7.24077   1
  Cu   5.12000  17.92000   7.24077   1
  Cu   7.68000  17.92000   7.24077   1
  Cu  10.24000  17.92000   7.24077   1
  Cu  12.80000  17.92000   7.24077   1
  Cu  15.36000  17.92000   7.24077   1
  Cu  17.92000  17.92000   7.24077   1
  Cu  20.48000  17.92000   7.24077   1
  Cu   5.12000  20.48000   7.24077   1
  Cu   7.68000  20.48000   7.24077   1
  Cu  10.24000  20.48000   7.24077   1
  Cu  12.80000  20.48000   7.24077   1
  Cu  15.36000  20.48000   7.24077   1
  Cu  17.92000  20.48000   7.24077   1
  Cu  20.48000  20.48000   7.24077   1
  Cu   6.40000   6.40000   9.05097   1
  Cu   8.96000   6.40000   9.05097   1
  Cu  11.52000   6.40000   9.05097   1
  Cu  14.08000   6.40000   9.05097   1
  Cu  16.64000   6.40000   9.05097   1
  Cu  19.20000   6.40000   9.05097   1
  Cu   6.40000   8.96000   9.05097   1
  Cu   8.96000   8.96000   9.05097   1
  Cu  11.52000   8.96000   9.05097   1
  Cu  14.08000   8.96000   9.05097   1
  Cu  16.64000   8.96000   9.05097   1
  Cu  19.20000   8.96000   9.05097   1
  Cu   6.40000  11.52000   9.05097   1
  Cu   8.96000  11.52000   9.05097   1
  Cu  11.52000  11.52000   9.05097   1
  Cu  14.08000  11.52000   9.05097   1
  Cu  16.64000  11.52000   9.05097   1
  Cu  19.20000  11.52000   9.05097   1
  Cu   6.40000  14.08000   9.05097   1
  Cu   8.96000  14.08000   9.05097   1
  Cu  11.52000  14.08000   9.05097   1
  Cu  14.08000  14.08000   9.05097   1
  Cu  16.64000  14.08000   9.05097   1
  Cu  19.20000  14.08000   9.05097   1
  Cu   6.40000  16.64000   9.05097   1
  Cu   8.96000  16.64000   9.05097   1
  Cu  11.52000  16.64000   9.05097   1
  Cu  14.08000  16.64000   9.05097   1
  Cu  16.64000  16.64000   9.05097   1
  Cu  19.20000  16.64000   9.05097   1
  Cu   6.40000  19.20000   9.05097   1
  Cu   8.96000  19.20000   9.05097   1
  Cu  11.52000  19.20000   9.05097   1
  Cu  14.08000  19.20000   9.05097   1
  Cu  16.64000  19.20000   9.05097   1
  Cu  19.20000  19.20000   9.05097   1
  Cu   7.68000   7.68000  10.86116   1
  Cu  10.24000   7.68000  10.86116   1
  Cu  12.80000   7.68000  10.86116   1
  Cu  15.36000   7.68000  10.86116   1
  Cu  17.92000   7.68000  10.86116   1
  Cu   7.68000  10.24000  10.86116   1
  Cu  10.24000  10.24000  10.86116   1
  Cu  12.80000  10.24000  10.86116   1
  Cu  15.36000  10.24000  10.86116   1
  Cu  17.92000  10.24000  10.86116   1
  Cu   7.68000  12.80000  10.86116   1
  Cu  10.24000  12.80000  10.86116   1
  Cu  12.80000  12.80000  10.86116   1
  Cu  15.36000  12.80000  10.86116   1
  Cu  17.92000  12.80000  10.86116   1
  Cu   7.68000  15.36000  10.86116   1
  Cu  10.24000  15.36000  10.86116   1
  Cu  12.80000  15.36000  10.86116   1
  Cu  15.36000  15.36000  10.86116   1
  Cu  17.92000  15.36000  10.86116   1
  Cu   7.68000  17.92000  10.86116   1
  Cu  10.24000  17.92000  10.86116   1
  Cu  12.80000  17.92000  10.86116   1
  Cu  15.36000  17.92000  10.86116   1
  Cu  17.92000  17.92000  10.86116   1
  Cu   8.96000   8.96000  12.67135   1
  Cu  11.52000   8.96000  12.67135   1
  Cu  14.08000   8.96000  12.67135   1
  Cu  16.64000   8.96000  12.67135   1
  Cu   8.96000  11.52000  12.67135   1
  Cu  11.52000  11.52000  12.67135   1
  Cu  14.08000  11.52000  12.67135   1
  Cu  16.64000  11.52000  12.67135   1
  Cu   8.96000  14.08000  12.67135   1
  Cu  11.52000  14.08000  12.67135   1
  Cu  14.08000  14.08000  12.67135   1
  Cu  16.64000  14.08000  12.67135   1
  Cu   8.96000  16.64000  12.67135   1
  Cu  11.52000  16.64000  12.67135   1
  Cu  14.08000  16.64000  12.67135   1
  Cu  16.64000  16.64000  12.67135   1
  Cu  10.24000  10.24000  14.48155   1
  Cu  12.80000  10.24000  14.48155   1
  Cu  15.36000  10.24000  14.48155   1
  Cu  10.24000  12.80000  14.48155   1
  Cu  12.80000  12.80000  14.48155   1
  Cu  15.36000  12.80000  14.48155   1
  Cu  10.24000  15.36000  14.48155   1
  Cu  12.80000  15.36000  14.48155   1
  Cu  15.36000  15.36000  14.48155   1
  Cu  11.52000  11.52000  16.29174   1
  Cu  14.08000  11.52000  16.29174   1
  Cu  11.52000  14.08000  16.29174   1
  Cu  14.08000  14.08000  16.29174   1
  Cu  12.80000  12.80000  18.10193   1
  Cu   1.28000   1.28000  -1.81019   1
  Cu   3.84000   1.28000  -1.81019   1
  Cu   6.40000   1.28000  -1.81019   1
  Cu   8.96000   1.28000  -1.81019   1
  Cu  11.52000   1.28000  -1.81019   1
  Cu  14.08000   1.28000  -1.81019   1
  Cu  16.64000   1.28000  -1.81019   1
  Cu  19.20000   1.28000  -1.81019   1
  Cu  21.76000   1.28000  -1.81019   1
  Cu  24.32000   1.28000  -1.81019   1
  Cu   1.28000   3.84000  -1.81019   1
  Cu   3.84000   3.84000  -1.81019   1
  Cu   6.40000   3.84000  -1.81019   1
  Cu   8.96000   3.84000  -1.81019   1
  Cu  11.52000   3.84000  -1.81019   1
  Cu  14.08000   3.84000  -1.81019   1
  Cu  16.64000   3.84000  -1.81019   1
  Cu  19.20000   3.84000  -1.81019   1
  Cu  21.76000   3.84000  -1.81019   1
  Cu  24.32000   3.84000  -1.81019   1
  Cu   1.28000   6.40000  -1.81019   1
  Cu   3.84000   6.40000  -1.81019   1
  Cu   6.40000   6.40000  -1.81019   1
  Cu   8.96000   6.40000  -1.81019   1
  Cu  11.52000   6.40000  -1.81019   1
  Cu  14.08000   6.40000  -1.81019   1
  Cu  16.64000   6.40000  -1.81019   1
  Cu  19.20000   6.40000  -1.81019   1
  Cu  21.76000   6.40000  -1.81019   1
  Cu  24.32000   6.40000  -1.81019   1
  Cu   1.28000   8.96000  -1.81019   1
  Cu   3.84000   8.96000  -1.81019   1
  Cu   6.40000   8.96000  -1.81019   1
  Cu   8.96000   8.96000  -1.81019   1
  Cu  11.52000   8.96000  -1.81019   1
  Cu  14.08000   8.96000  -1.81019   1
  Cu  16.64000   8.96000  -1.81019   1
  Cu  19.20000   8.96000  -1.81019   1
  Cu  21.76000   8.96000  -1.81019   1
  Cu  24.32000   8.96000  -1.81019   1
  Cu   1.28000  11.52000  -1.81019   1
  Cu   3.84000  11.52000  -1.81019   1
  Cu   6.40000  11.52000  -1.81019   1
  Cu   8.96000  11.52000  -1.81019   1
  Cu  11.52000  11.52000  -1.81019   1
  Cu  14.08000  11.52000  -1.81019   1
  Cu  16.64000  11.52000  -1.81019   1
  Cu  19.20000  11.52000  -1.81019   1
  Cu  21.76000  11.52000  -1.81019   1
  Cu  24.32000  11.52000  -1.81019   1
  Cu   1.28000  14.08000  -1.81019   1
  Cu   3.84000  14.08000  -1.81019   1
  Cu   6.40000  14.08000  -1.81019   1
  Cu   8.96000  14.08000  -1.81019   1
  Cu  11.52000  14.08000  -1.81019   1
  Cu  14.08000  14.08000  -1.81019   1
  Cu  16.64000  14.08000  -1.81019   1
  Cu  19.20000  14.08000  -1.81019   1
  Cu  21.76000  14.08000  -1.81019   1
  Cu  24.32000  14.08000  -1.81019   1
  Cu   1.28000  16.64000  -1.81019   1
  Cu   3.84000  16.64000  -1.81019   1
  Cu   6.40000  16.64000  -1.81019   1
  Cu   8.96000  16.64000  -1.81019   1
  Cu  11.52000  16.64000  -1.81019   1
  Cu  14.08000  16.64000  -1.81019   1
  Cu  16.64000  16.64000  -1.81019   1
  Cu  19.20000  16.64000  -1.81019   1
  Cu  21.76000  16.64000  -1.81019   1
  Cu  24.32000  16.64000  -1.81019   1
  Cu   1.28000  19.20000  -1.81019   1
  Cu   3.84000  19.20000  -1.81019   1
  Cu   6.40000  19.20000  -1.81019   1
  Cu   8.96000  19.20000  -1.81019   1
  Cu  11.52000  19.20000  -1.81019   1
  Cu  14.08000  19.20000  -1.81019   1
  Cu  16.64000  19.20000  -1.81019   1
  Cu  19.20000  19.20000  -1.81019   1
  Cu  21.76000  19.20000  -1.81019   1
  Cu  24.32000  19.20000  -1.81019   1
  Cu   1.28000  21.76000  -1.81019   1
  Cu   3.84000  21.76000  -1.81019   1
  Cu   6.40000  21.76000  -1.81019   1
  Cu   8.96000  21.76000  -1.81019   1
  Cu  11.52000  21.76000  -1.81019   1
  Cu  14.08000  21.76000  -1.81019   1
  Cu  16.64000  21.76000  -1.81019   1
  Cu  19.20000  21.76000  -1.81019   1
  Cu  21.76000  21.76000  -1.81019   1
  Cu  24.32000  21.76000  -1.81019   1
  Cu   1.28000  24.32000  -1.81019   1
  Cu   3.84000  24.32000  -1.81019   1
  Cu   6.40000  24.32000  -1.81019   1
  Cu   8.96000  24.32000  -1.81019   1
  Cu  11.52000  24.32000  -1.81019   1
  Cu  14.08000  24.32000  -1.81019   1
  Cu  16.64000  24.32000  -1.81019   1
  Cu  19.20000  24.32000  -1.81019   1
  Cu  21.76000  24.32000  -1.81019   1
  Cu  24.32000  24.32000  -1.81019   1
  Cu   2.56000   2.56000  -3.62039   1
  Cu   5.12000   2.56000  -3.62039   1
  Cu   7.68000   2.56000  -3.62039   1
  Cu  10.24000   2.56000  -3.62039   1
  Cu  12.80000   2.56000  -3.62039   1
  Cu  15.36000   2.56000  -3.62039   1
  Cu  17.92000   2.56000  -3.62039   1
  Cu  20.48000   2.56000  -3.62039   1
  Cu  23.04000   2.56000  -3.62039   1
  Cu   2.56000   5.12000  -3.62039   1
  Cu   5.12000   5.12000  -3.62039   1
  Cu   7.68000   5.12000  -3.62039   1
  Cu  10.24000   5.12000  -3.62039   1
  Cu  12.80000   5.12000  -3.62039   1
  Cu  15.36000   5.12000  -3.62039   1
  Cu  17.92000   5.12000  -3.62039   1
  Cu  20.48000   5.12000  -3.62039   1
  Cu  23.04000   5.12000  -3.62039   1
  Cu   2.56000   7.68000  -3.62039   1
  Cu   5.12000   7.68000  -3.62039   1
  Cu   7.68000   7.68000  -3.62039   1
  Cu  10.24000   7.68000  -3.62039   1
  Cu  12.80000   7.68000  -3.62039   1
  Cu  15.36000   7.68000  -3.62039   1
  Cu  17.92000   7.68000  -3.62039   1
  Cu  20.48000   7.68000  -3.62039   1
  Cu  23.04000   7.68000  -3.62039   1
  Cu   2.56000  10.24000  -3.62039   1
  Cu   5.12000  10.24000  -3.62039   1
  Cu   7.68000  10.24000  -3.62039   1
  Cu  10.24000  10.24000  -3.62039   1
  Cu  12.80000  10.24000  -3.62039   1
  Cu  15.36000  10.24000  -3.62039   1
  Cu  17.92000  10.24000  -3.62039   1
  Cu  20.48000  10.24000  -3.62039   1
  Cu  23.04000  10.24000  -3.62039   1
  Cu   2.56000  12.80000  -3.62039   1
  Cu   5.12000  12.80000  -3.62039   1
  Cu   7.68000  12.80000  -3.62039   1
  Cu  10.24000  12.80000  -3.62039   1
  Cu  12.80000  12.80000  -3.62039   1
  Cu  15.36000  12.80000  -3.62039   1
  Cu  17.92000  12.80000  -3.62039   1
  Cu  20.48000  12.80000  -3.62039   1
  Cu  23.04000  12.80000  -3.62039   1
  Cu   2.56000  15.36000  -3.62039   1
  Cu   5.12000  15.36000  -3.62039   1
  Cu   7.68000  15.36000  -3.62039   1
  Cu  10.24000  15.36000  -3.62039   1
  Cu  12.80000  15.36000  -3.62039   1
  Cu  15.36000  15.36000  -3.62039   1
  Cu  17.92000  15.36000  -3.62039   1
  Cu  20.48000  15.36000  -3.62039   1
  Cu  23.04000  15.36000  -3.62039   1
  Cu   2.56000  17.92000  -3.62039   1
  Cu   5.12000  17.92000  -3.62039   1
  Cu   7.68000  17.92000  -3.62039   1
  Cu  10.24000  17.92000  -3.62039   1
  Cu  12.80000  17.92000  -3.62039   1
  Cu  15.36000  17.92000  -3.62039   1
  Cu  17.92000  17.92000  -3.62039   1
  Cu  20.48000  17.92000  -3.62039   1
  Cu  23.04000  17.92000  -3.62039   1
  Cu   2.56000  20.48000  -3.62039   1
  Cu   5.12000  20.48000  -3.62039   1
  Cu   7.68000  20.48000  -3.62039   1
  Cu  10.24000  20.48000  -3.62039   1
  Cu  12.80000  20.48000  -3.62039   1
  Cu  15.36000  20.48000  -3.62039   1
  Cu  17.92000  20.48000  -3.62039   1
  Cu  20.48000  20.48000  -3.62039   1
  Cu  23.04000  20.48000  -3.62039   1
  Cu   2.56000  23.04000  -3.62039   1
  Cu   5.12000  23.04000  -3.62039   1
  Cu   7.68000  23.04000  -3.62039   1
  Cu  10.24000  23.04000  -3.62039   1
  Cu  12.80000  23.04000  -3.62039   1
  Cu  15.36000  23.04000  -3.62039   1
  Cu  17.92000  23.04000  -3.62039   1
  Cu  20.48000  23.04000  -3.62039   1
  Cu  23.04000  23.04000  -3.62039   1
  Cu   3.84000   3.84000  -5.43058   1
  Cu   6.40000   3.84000  -5.43058   1
  Cu   8.96000   3.84000  -5.43058   1
  Cu  11.52000   3.84000  -5.43058   1
  Cu  14.08000   3.84000  -5.43058   1
  Cu  16.64000   3.84000  -5.43058   1
  Cu  19.20000   3.84000  -5.43058   1
  Cu  21.76000   3.84000  -5.43058   1
  Cu   3.84000   6.40000  -5.43058   1
  Cu   6.40000   6.40000  -5.43058   1
  Cu   8.96000   6.40000  -5.43058   1
  Cu  11.52000   6.40000  -5.43058   1
  Cu  14.08000   6.40000  -5.43058   1
  Cu  16.64000   6.40000  -5.43058   1
  Cu  19.20000   6.40000  -5.43058   1
  Cu  21.76000   6.40000  -5.43058   1
  Cu   3.84000   8.96000  -5.43058   1
  Cu   6.40000   8.96000  -5.43058   1
  Cu   8.96000   8.96000  -5.43058   1
  Cu  11.52000   8.96000  -5.43058   1
  Cu  14.08000   8.96000  -5.43058   1
  Cu  16.64000   8.96000  -5.43058   1
  Cu  19.20000   8.96000  -5.43058   1
  Cu  21.76000   8.96000  -5.43058   1
  Cu   3.84000  11.52000  -5.43058   1
  Cu   6.40000  11.52000  -5.43058   1
  Cu   8.96000  11.52000  -5.43058   1
  Cu  11.52000  11.52000  -5.43058   1
  Cu  14.08000  11.52000  -5.43058   1
  Cu  16.64000  11.52000  -5.43058   1
  Cu  19.20000  11.52000  -5.43058   1
  Cu  21.76000  11.52000  -5.43058   1
  Cu   3.84000  14.08000  -5.43058   1
  Cu   6.40000  14.08000  -5.43058   1
  Cu   8.96000  14.08000  -5.43058   1
  Cu  11.52000  14.08000  -5.43058   1
  Cu  14.08000  14.08000  -5.43058   1
  Cu  16.64000  14.08000  -5.43058   1
  Cu  19.20000  14.08000  -5.43058   1
  Cu  21.76000  14.08000  -5.43058   1
  Cu   3.84000  16.64000  -5.43058   1
  Cu   6.40000  16.64000  -5.43058   1
  Cu   8.96000  16.64000  -5.43058   1
  Cu  11.52000  16.64000  -5.43058   1
  Cu  14.08000  16.64000  -5.43058   1
  Cu  16.64000  16.64000  -5.43058   1
  Cu  19.20000  16.64000  -5.43058   1
  Cu  21.76000  16.64000  -5.43058   1
  Cu   3.84000  19.20000  -5.43058   1
  Cu   6.40000  19.20000  -5.43058   1
  Cu   8.96000  19.20000  -5.43058   1
  Cu  11.52000  19.20000  -5.43058   1
  Cu  14.08000  19.20000  -5.43058   1
  Cu  16.64000  19.20000  -5.43058   1
  Cu  19.20000  19.20000  -5.43058   1
  Cu  21.76000  19.20000  -5.43058   1
  Cu   3.84000  21.76000  -5.43058   1
  Cu   6.40000  21.76000  -5.43058   1
  Cu   8.96000  21.76000  -5.43058   1
  Cu  11.52000  21.76000  -5.43058   1
  Cu  14.08000  21.76000  -5.43058   1
  Cu  16.64000  21.76000  -5.43058   1
  Cu  19.20000  21.76000  -5.43058   1
  Cu  21.76000  21.76000  -5.43058   1
  Cu   5.12000   5.12000  -7.24077   1
  Cu   7.68000   5.12000  -7.24077   1
  Cu  10.24000   5.12000  -7.24077   1
  Cu  12.80000   5.12000  -7.24077   1
  Cu  15.36000   5.12000  -7.24077   1
  Cu  17.92000   5.12000  -7.24077   1
  Cu  20.48000   5.12000  -7.24077   1
  Cu   5.12000   7.68000  -7.24077   1
  Cu   7.68000   7.68000  -7.24077   1
  Cu  10.24000   7.68000  -7.24077   1
  Cu  12.80000   7.68000  -7.24077   1
  Cu  15.36000   7.68000  -7.24077   1
  Cu  17.92000   7.68000  -7.24077   1
  Cu  20.48000   7.68000  -7.24077   1
  Cu   5.12000  10.24000  -7.24077   1
  Cu   7.68000  10.24000  -7.24077   1
  Cu  10.24000  10.24000  -7.24077   1
  Cu  12.80000  10.24000  -7.24077   1
  Cu  15.36000  10.24000  -7.24077   1
  Cu  17.92000  10.24000  -7.24077   1
  Cu  20.48000  10.24000  -7.24077   1
  Cu   5.12000  12.80000  -7.24077   1
  Cu   7.68000  12.80000  -7.24077   1
  Cu  10.24000  12.80000  -7.24077   1
  Cu  12.80000  12.80000  -7.24077   1
  Cu  15.36000  12.80000  -7.24077   1
  Cu  17.92000  12.80000  -7.24077   1
  Cu  20.48000  12.80000  -7.24077   1
  Cu   5.12000  15.36000  -7.24077   1
  Cu   7.68000  15.36000  -7.24077   1
  Cu  10.24000  15.36000  -7.24077   1
  Cu  12.80000  15.36000  -7.24077   1
  Cu  15.36000  15.36000  -7.24077   1
  Cu  17.92000  15.36000  -7.24077   1
  Cu  20.48000  15.36000  -7.24077   1
  Cu   5.12000  17.92000  -7.24077   1
  Cu   7.68000  17.92000  -7.24077   1
  Cu  10.24000  17.92000  -7.24077   1
  Cu  12.80000  17.92000  -7.24077   1
  Cu  15.36000  17.92000  -7.24077   1
  Cu  17.92000  17.92000  -7.24077   1
  Cu  20.48000  17.92000  -7.24077   1
  Cu   5.12000  20.48000  -7.24077   1
  Cu   7.68000  20.48000  -7.24077   1
  Cu  10.24000  20.48000  -7.24077   1
  Cu  12.80000  20.48000  -7.24077   1
  Cu  15.36000  20.48000  -7.24077   1
  Cu  17.92000  20.48000  -7.24077   1
  Cu  20.48000  20.48000  -7.24077   1
  Cu   6.40000   6.40000  -9.05097   1
  Cu   8.96000   6.40000  -9.05097   1
  Cu  11.52000   6.40000  -9.05097   1
  Cu  14.08000   6.40000  -9.05097   1
  Cu  16.64000   6.40000  -9.05097   1
  Cu  19.20000   6.40000  -9.05097   1
  Cu   6.40000   8.96000  -9.05097   1
  Cu   8.96000   8.96000  -9.05097   1
  Cu  11.52000   8.96000  -9.05097   1
  Cu  14.08000   8.96000  -9.05097   1
  Cu  16.64000   8.96000  -9.05097   1
  Cu  19.20000   8.96000  -9.05097   1
  Cu   6.40000  11.52000  -9.05097   1
  Cu   8.96000  11.52000  -9.05097   1
  Cu  11.52000  11.52000  -9.05097   1
  Cu  14.08000  11.52000  -9.05097   1
  Cu  16.64000  11.52000  -9.05097   1
  Cu  19.20000  11.52000  -9.05097   1
  Cu   6.40000  14.08000  -9.05097   1
  Cu   8.96000  14.08000  -9.05097   1
  Cu  11.52000  14.08000  -9.05097   1
  Cu  14.08000  14.08000  -9.05097   1
  Cu  16.64000  14.08000  -9.05097   1
  Cu  19.20000  14.08000  -9.05097   1
  Cu   6.40000  16.64000  -9.05097   1
  Cu   8.96000  16.64000  -9.05097   1
  Cu  11.52000  16.64000  -9.05097   1
  Cu  14.08000  16.64000  -9.05097   1
  Cu  16.64000  16.64000  -9.05097   1
  Cu  19.20000  16.64000  -9.05097   1
  Cu   6.40000  19.20000  -9.05097   1
  Cu   8.96000  19.20000  -9.05097   1
  Cu  11.52000  19.20000  -9.05097   1
  Cu  14.08000  19.20000  -9.05097   1
  Cu  16.64000  19.20000  -9.05097   1
  Cu  19.20000  19.20000  -9.05097   1
  Cu   7.68000   7.68000 -10.86116   1
  Cu  10.24000   7.68000 -10.86116   1
  Cu  12.80000   7.68000 -10.86116   1
  Cu  15.36000   7.68000 -10.86116   1
  Cu  17.92000   7.68000 -10.86116   1
  Cu   7.68000  10.24000 -10.86116   1
  Cu  10.24000  10.24000 -10.86116   1
  Cu  12.80000  10.24000 -10.86116   1
  Cu  15.36000  10.24000 -10.86116   1
  Cu  17.92000  10.24000 -10.86116   1
  Cu   7.68000  12.80000 -10.86116   1
  Cu  10.24000  12.80000 -10.86116   1
  Cu  12.80000  12.80000 -10.86116   1
  Cu  15.36000  12.80000 -10.86116   1
  Cu  17.92000  12.80000 -10.86116   1
  Cu   7.68000  15.36000 -10.86116   1
  Cu  10.24000  15.36000 -10.86116   1
  Cu  12.80000  15.36000 -10.86116   1
  Cu  15.36000  15.36000 -10.86116   1
  Cu  17.92000  15.36000 -10.86116   1
  Cu   7.68000  17.92000 -10.86116   1
  Cu  10.24000  17.92000 -10.86116   1
  Cu  12.80000  17.92000 -10.86116   1
  Cu  15.36000  17.92000 -10.86116   1
  Cu  17.92000  17.92000 -10.86116   1
  Cu   8.96000   8.96000 -12.67135   1
  Cu  11.52000   8.96000 -12.67135   1
  Cu  14.08000   8.96000 -12.67135   1
  Cu  16.64000   8.96000 -12.67135   1
  Cu   8.96000  11.52000 -12.67135   1
  Cu  11.52000  11.52000 -12.67135   1
  Cu  14.08000  11.52000 -12.67135   1
  Cu  16.64000  11.52000 -12.67135   1
  Cu   8.96000  14.08000 -12.67135   1
  Cu  11.52000  14.08000 -12.67135   1
  Cu  14.08000  14.08000 -12.67135   1
  Cu  16.64000  14.08000 -12.67135   1
  Cu   8.96000  16.64000 -12.67135   1
  Cu  11.52000  16.64000 -12.67135   1
  Cu  14.08000  16.64000 -12.67135   1
  Cu  16.64000  16.64000 -12.67135   1
  Cu  10.24000  10.24000 -14.48155   1
  Cu  12.80000  10.24000 -14.48155   1
  Cu  15.36000  10.24000 -14.48155   1
  Cu  10.24000  12.80000 -14.48155   1
  Cu  12.80000  12.80000 -14.48155   1
  Cu  15.36000  12.80000 -14.48155   1
  Cu  10.24000  15.36000 -14.48155   1
  Cu  12.80000  15.36000 -14.48155   1
  Cu  15.36000  15.36000 -14.48155   1
  Cu  11.52000  11.52000 -16.29174   1
  Cu  14.08000  11.52000 -16.29174   1
  Cu  11.52000  14.08000 -16.29174   1
  Cu  14.08000  14.08000 -16.29174   1
  Cu  12.80000  12.80000 -18.10193   1
