         172
29
 Cu   0.00000000       0.00000000       0.00000000    
 Cu   0.00000000       0.00000000       3.60999990    
 Cu   0.00000000       0.00000000       7.21999979    
 Cu   0.00000000       0.00000000       10.8299999    
 Cu   0.00000000       3.60999990       0.00000000    
 Cu   0.00000000       3.60999990       3.60999990    
 Cu   0.00000000       3.60999990       7.21999979    
 Cu   0.00000000       3.60999990       10.8299999    
 Cu   0.00000000       7.21999979       0.00000000    
 Cu   0.00000000       7.21999979       3.60999990    
 Cu   0.00000000       7.21999979       7.21999979    
 Cu   0.00000000       7.21999979       10.8299999    
 Cu   0.00000000       10.8299999       0.00000000    
 Cu   0.00000000       10.8299999       3.60999990    
 Cu   0.00000000       10.8299999       7.21999979    
 Cu   0.00000000       10.8299999       10.8299999    
 Cu   3.60999990       0.00000000       0.00000000    
 Cu   3.60999990       0.00000000       3.60999990    
 Cu   3.60999990       0.00000000       7.21999979    
 Cu   3.60999990       0.00000000       10.8299999    
 Cu   3.60999990       3.60999990       0.00000000    
 Cu   3.60999990       3.60999990       3.60999990    
 Cu   3.60999990       3.60999990       7.21999979    
 Cu   3.60999990       3.60999990       10.8299999    
 Cu   3.60999990       7.21999979       0.00000000    
 Cu   3.60999990       7.21999979       3.60999990    
 Cu   3.60999990       7.21999979       7.21999979    
 Cu   3.60999990       7.21999979       10.8299999    
 Cu   3.60999990       10.8299999       0.00000000    
 Cu   3.60999990       10.8299999       3.60999990    
 Cu   3.60999990       10.8299999       7.21999979    
 Cu   3.60999990       10.8299999       10.8299999    
 Cu   7.21999979       0.00000000       0.00000000    
 Cu   7.21999979       0.00000000       3.60999990    
 Cu   7.21999979       0.00000000       7.21999979    
 Cu   7.21999979       0.00000000       10.8299999    
 Cu   7.21999979       3.60999990       0.00000000    
 Cu   7.21999979       3.60999990       3.60999990    
 Cu   7.21999979       3.60999990       7.21999979    
 Cu   7.21999979       3.60999990       10.8299999    
 Cu   7.21999979       7.21999979       0.00000000    
 Cu   7.21999979       7.21999979       3.60999990    
 Cu   7.21999979       7.21999979       7.21999979    
 Cu   7.21999979       7.21999979       10.8299999    
 Cu   7.21999979       10.8299999       0.00000000    
 Cu   7.21999979       10.8299999       3.60999990    
 Cu   7.21999979       10.8299999       7.21999979    
 Cu   7.21999979       10.8299999       10.8299999    
 Cu   10.8299999       0.00000000       0.00000000    
 Cu   10.8299999       0.00000000       3.60999990    
 Cu   10.8299999       0.00000000       7.21999979    
 Cu   10.8299999       0.00000000       10.8299999    
 Cu   10.8299999       3.60999990       0.00000000    
 Cu   10.8299999       3.60999990       3.60999990    
 Cu   10.8299999       3.60999990       7.21999979    
 Cu   10.8299999       3.60999990       10.8299999    
 Cu   10.8299999       7.21999979       0.00000000    
 Cu   10.8299999       7.21999979       3.60999990    
 Cu   10.8299999       7.21999979       7.21999979    
 Cu   10.8299999       7.21999979       10.8299999    
 Cu   10.8299999       10.8299999       0.00000000    
 Cu   10.8299999       10.8299999       3.60999990    
 Cu   10.8299999       10.8299999       7.21999979    
 Cu   10.8299999       10.8299999       10.8299999    
 Cu   1.80499995       1.80499995       0.00000000    
 Cu   1.80499995       1.80499995       3.60999990    
 Cu   1.80499995       1.80499995       7.21999979    
 Cu   1.80499995       1.80499995       10.8299999    
 Cu   1.80499995       5.41499996       0.00000000    
 Cu   1.80499995       5.41499996       3.60999990    
 Cu   1.80499995       5.41499996       7.21999979    
 Cu   1.80499995       5.41499996       10.8299999    
 Cu   1.80499995       9.02499962       0.00000000    
 Cu   1.80499995       9.02499962       3.60999990    
 Cu   1.80499995       9.02499962       7.21999979    
 Cu   1.80499995       9.02499962       10.8299999    
 Cu   5.41499996       1.80499995       0.00000000    
 Cu   5.41499996       1.80499995       3.60999990    
 Cu   5.41499996       1.80499995       7.21999979    
 Cu   5.41499996       1.80499995       10.8299999    
 Cu   5.41499996       5.41499996       0.00000000    
 Cu   5.41499996       5.41499996       3.60999990    
 Cu   5.41499996       5.41499996       7.21999979    
 Cu   5.41499996       5.41499996       10.8299999    
 Cu   5.41499996       9.02499962       0.00000000    
 Cu   5.41499996       9.02499962       3.60999990    
 Cu   5.41499996       9.02499962       7.21999979    
 Cu   5.41499996       9.02499962       10.8299999    
 Cu   9.02499962       1.80499995       0.00000000    
 Cu   9.02499962       1.80499995       3.60999990    
 Cu   9.02499962       1.80499995       7.21999979    
 Cu   9.02499962       1.80499995       10.8299999    
 Cu   9.02499962       5.41499996       0.00000000    
 Cu   9.02499962       5.41499996       3.60999990    
 Cu   9.02499962       5.41499996       7.21999979    
 Cu   9.02499962       5.41499996       10.8299999    
 Cu   9.02499962       9.02499962       0.00000000    
 Cu   9.02499962       9.02499962       3.60999990    
 Cu   9.02499962       9.02499962       7.21999979    
 Cu   9.02499962       9.02499962       10.8299999    
 Cu   0.00000000       1.80499995       1.80499995    
 Cu   0.00000000       1.80499995       5.41499996    
 Cu   0.00000000       1.80499995       9.02499962    
 Cu   0.00000000       5.41499996       1.80499995    
 Cu   0.00000000       5.41499996       5.41499996    
 Cu   0.00000000       5.41499996       9.02499962    
 Cu   0.00000000       9.02499962       1.80499995    
 Cu   0.00000000       9.02499962       5.41499996    
 Cu   0.00000000       9.02499962       9.02499962    
 Cu   3.60999990       1.80499995       1.80499995    
 Cu   3.60999990       1.80499995       5.41499996    
 Cu   3.60999990       1.80499995       9.02499962    
 Cu   3.60999990       5.41499996       1.80499995    
 Cu   3.60999990       5.41499996       5.41499996    
 Cu   3.60999990       5.41499996       9.02499962    
 Cu   3.60999990       9.02499962       1.80499995    
 Cu   3.60999990       9.02499962       5.41499996    
 Cu   3.60999990       9.02499962       9.02499962    
 Cu   7.21999979       1.80499995       1.80499995    
 Cu   7.21999979       1.80499995       5.41499996    
 Cu   7.21999979       1.80499995       9.02499962    
 Cu   7.21999979       5.41499996       1.80499995    
 Cu   7.21999979       5.41499996       5.41499996    
 Cu   7.21999979       5.41499996       9.02499962    
 Cu   7.21999979       9.02499962       1.80499995    
 Cu   7.21999979       9.02499962       5.41499996    
 Cu   7.21999979       9.02499962       9.02499962    
 Cu   10.8299999       1.80499995       1.80499995    
 Cu   10.8299999       1.80499995       5.41499996    
 Cu   10.8299999       1.80499995       9.02499962    
 Cu   10.8299999       5.41499996       1.80499995    
 Cu   10.8299999       5.41499996       5.41499996    
 Cu   10.8299999       5.41499996       9.02499962    
 Cu   10.8299999       9.02499962       1.80499995    
 Cu   10.8299999       9.02499962       5.41499996    
 Cu   10.8299999       9.02499962       9.02499962    
 Cu   1.80499995       0.00000000       1.80499995    
 Cu   1.80499995       0.00000000       5.41499996    
 Cu   1.80499995       0.00000000       9.02499962    
 Cu   1.80499995       3.60999990       1.80499995    
 Cu   1.80499995       3.60999990       5.41499996    
 Cu   1.80499995       3.60999990       9.02499962    
 Cu   1.80499995       7.21999979       1.80499995    
 Cu   1.80499995       7.21999979       5.41499996    
 Cu   1.80499995       7.21999979       9.02499962    
 Cu   1.80499995       10.8299999       1.80499995    
 Cu   1.80499995       10.8299999       5.41499996    
 Cu   1.80499995       10.8299999       9.02499962    
 Cu   5.41499996       0.00000000       1.80499995    
 Cu   5.41499996       0.00000000       5.41499996    
 Cu   5.41499996       0.00000000       9.02499962    
 Cu   5.41499996       3.60999990       1.80499995    
 Cu   5.41499996       3.60999990       5.41499996    
 Cu   5.41499996       3.60999990       9.02499962    
 Cu   5.41499996       7.21999979       1.80499995    
 Cu   5.41499996       7.21999979       5.41499996    
 Cu   5.41499996       7.21999979       9.02499962    
 Cu   5.41499996       10.8299999       1.80499995    
 Cu   5.41499996       10.8299999       5.41499996    
 Cu   5.41499996       10.8299999       9.02499962    
 Cu   9.02499962       0.00000000       1.80499995    
 Cu   9.02499962       0.00000000       5.41499996    
 Cu   9.02499962       0.00000000       9.02499962    
 Cu   9.02499962       3.60999990       1.80499995    
 Cu   9.02499962       3.60999990       5.41499996    
 Cu   9.02499962       3.60999990       9.02499962    
 Cu   9.02499962       7.21999979       1.80499995    
 Cu   9.02499962       7.21999979       5.41499996    
 Cu   9.02499962       7.21999979       9.02499962    
 Cu   9.02499962       10.8299999       1.80499995    
 Cu   9.02499962       10.8299999       5.41499996    
 Cu   9.02499962       10.8299999       9.02499962    
