         309
 icosaedre
  Pt   0.00000   0.00000   0.00000    12
  Pt   2.35630   1.45628   0.00000    12
  Pt   2.35630  -1.45628   0.00000    12
  Pt  -2.35630   1.45628   0.00000    12
  Pt  -2.35630  -1.45628   0.00000    12
  Pt   1.45628   0.00000   2.35630    12
  Pt   1.45628   0.00000  -2.35630    12
  Pt  -1.45628   0.00000   2.35630    12
  Pt  -1.45628   0.00000  -2.35630    12
  Pt   0.00000   2.35630   1.45628    12
  Pt   0.00000   2.35630  -1.45628    12
  Pt   0.00000  -2.35630   1.45628    12
  Pt   0.00000  -2.35630  -1.45628    12
  Pt   4.71261   2.91255   0.00000    12
  Pt   4.71261  -2.91255   0.00000    12
  Pt  -4.71261   2.91255   0.00000    12
  Pt  -4.71261  -2.91255   0.00000    12
  Pt   2.91255   0.00000   4.71261    12
  Pt   2.91255   0.00000  -4.71261    12
  Pt  -2.91255   0.00000   4.71261    12
  Pt  -2.91255   0.00000  -4.71261    12
  Pt   0.00000   4.71261   2.91255    12
  Pt   0.00000   4.71261  -2.91255    12
  Pt   0.00000  -4.71261   2.91255    12
  Pt   0.00000  -4.71261  -2.91255    12
  Pt   4.71261   0.00000   0.00000    12
  Pt   3.81258   1.45628   2.35630    12
  Pt   3.81258  -1.45628   2.35630    12
  Pt   3.81258   1.45628  -2.35630    12
  Pt   3.81258  -1.45628  -2.35630    12
  Pt   2.35630   3.81258   1.45628    12
  Pt   1.45628   2.35630   3.81258    12
  Pt   2.35630   3.81258  -1.45628    12
  Pt   1.45628   2.35630  -3.81258    12
  Pt   0.00000   4.71261   0.00000    12
  Pt   2.35630  -3.81258   1.45628    12
  Pt   1.45628  -2.35630   3.81258    12
  Pt   2.35630  -3.81258  -1.45628    12
  Pt   1.45628  -2.35630  -3.81258    12
  Pt   0.00000  -4.71261   0.00000    12
  Pt  -4.71261   0.00000   0.00000    12
  Pt  -3.81258   1.45628   2.35630    12
  Pt  -3.81258  -1.45628   2.35630    12
  Pt  -3.81258   1.45628  -2.35630    12
  Pt  -3.81258  -1.45628  -2.35630    12
  Pt  -2.35630   3.81258   1.45628    12
  Pt  -1.45628   2.35630   3.81258    12
  Pt  -2.35630   3.81258  -1.45628    12
  Pt  -1.45628   2.35630  -3.81258    12
  Pt  -2.35630  -3.81258   1.45628    12
  Pt  -1.45628  -2.35630   3.81258    12
  Pt  -2.35630  -3.81258  -1.45628    12
  Pt  -1.45628  -2.35630  -3.81258    12
  Pt   0.00000   0.00000   4.71261    12
  Pt   0.00000   0.00000  -4.71261    12
  Pt   7.06891   4.36883   0.00000    12
  Pt   7.06891  -4.36883   0.00000    12
  Pt  -7.06891   4.36883   0.00000    12
  Pt  -7.06891  -4.36883   0.00000    12
  Pt   4.36883   0.00000   7.06891    12
  Pt   4.36883   0.00000  -7.06891    12
  Pt  -4.36883   0.00000   7.06891    12
  Pt  -4.36883   0.00000  -7.06891    12
  Pt   0.00000   7.06891   4.36883    12
  Pt   0.00000   7.06891  -4.36883    12
  Pt   0.00000  -7.06891   4.36883    12
  Pt   0.00000  -7.06891  -4.36883    12
  Pt   7.06891   1.45628   0.00000    12
  Pt   7.06891  -1.45628   0.00000    12
  Pt   6.16888   2.91255   2.35630    12
  Pt   5.26885   1.45628   4.71261    12
  Pt   6.16888  -2.91255   2.35630    12
  Pt   5.26885  -1.45628   4.71261    12
  Pt   6.16888   0.00000   2.35630    12
  Pt   6.16888   2.91255  -2.35630    12
  Pt   5.26885   1.45628  -4.71261    12
  Pt   6.16888  -2.91255  -2.35630    12
  Pt   5.26885  -1.45628  -4.71261    12
  Pt   6.16888   0.00000  -2.35630    12
  Pt   4.71261   5.26885   1.45628    12
  Pt   2.35630   6.16888   2.91255    12
  Pt   2.91255   2.35630   6.16888    12
  Pt   1.45628   4.71261   5.26885    12
  Pt   3.81258   3.81258   3.81258    12
  Pt   4.71261   5.26885  -1.45628    12
  Pt   2.35630   6.16888  -2.91255    12
  Pt   2.91255   2.35630  -6.16888    12
  Pt   1.45628   4.71261  -5.26885    12
  Pt   3.81258   3.81258  -3.81258    12
  Pt   0.00000   7.06891   1.45628    12
  Pt   0.00000   7.06891  -1.45628    12
  Pt   2.35630   6.16888   0.00000    12
  Pt   4.71261  -5.26885   1.45628    12
  Pt   2.35630  -6.16888   2.91255    12
  Pt   2.91255  -2.35630   6.16888    12
  Pt   1.45628  -4.71261   5.26885    12
  Pt   3.81258  -3.81258   3.81258    12
  Pt   4.71261  -5.26885  -1.45628    12
  Pt   2.35630  -6.16888  -2.91255    12
  Pt   2.91255  -2.35630  -6.16888    12
  Pt   1.45628  -4.71261  -5.26885    12
  Pt   3.81258  -3.81258  -3.81258    12
  Pt   0.00000  -7.06891   1.45628    12
  Pt   0.00000  -7.06891  -1.45628    12
  Pt   2.35630  -6.16888   0.00000    12
  Pt  -7.06891   1.45628   0.00000    12
  Pt  -7.06891  -1.45628   0.00000    12
  Pt  -6.16888   2.91255   2.35630    12
  Pt  -5.26885   1.45628   4.71261    12
  Pt  -6.16888  -2.91255   2.35630    12
  Pt  -5.26885  -1.45628   4.71261    12
  Pt  -6.16888   0.00000   2.35630    12
  Pt  -6.16888   2.91255  -2.35630    12
  Pt  -5.26885   1.45628  -4.71261    12
  Pt  -6.16888  -2.91255  -2.35630    12
  Pt  -5.26885  -1.45628  -4.71261    12
  Pt  -6.16888   0.00000  -2.35630    12
  Pt  -4.71261   5.26885   1.45628    12
  Pt  -2.35630   6.16888   2.91255    12
  Pt  -2.91255   2.35630   6.16888    12
  Pt  -1.45628   4.71261   5.26885    12
  Pt  -3.81258   3.81258   3.81258    12
  Pt  -4.71261   5.26885  -1.45628    12
  Pt  -2.35630   6.16888  -2.91255    12
  Pt  -2.91255   2.35630  -6.16888    12
  Pt  -1.45628   4.71261  -5.26885    12
  Pt  -3.81258   3.81258  -3.81258    12
  Pt  -2.35630   6.16888   0.00000    12
  Pt  -4.71261  -5.26885   1.45628    12
  Pt  -2.35630  -6.16888   2.91255    12
  Pt  -2.91255  -2.35630   6.16888    12
  Pt  -1.45628  -4.71261   5.26885    12
  Pt  -3.81258  -3.81258   3.81258    12
  Pt  -4.71261  -5.26885  -1.45628    12
  Pt  -2.35630  -6.16888  -2.91255    12
  Pt  -2.91255  -2.35630  -6.16888    12
  Pt  -1.45628  -4.71261  -5.26885    12
  Pt  -3.81258  -3.81258  -3.81258    12
  Pt  -2.35630  -6.16888   0.00000    12
  Pt   1.45628   0.00000   7.06891    12
  Pt  -1.45628   0.00000   7.06891    12
  Pt   0.00000   2.35630   6.16888    12
  Pt   0.00000  -2.35630   6.16888    12
  Pt   1.45628   0.00000  -7.06891    12
  Pt  -1.45628   0.00000  -7.06891    12
  Pt   0.00000   2.35630  -6.16888    12
  Pt   0.00000  -2.35630  -6.16888    12
  Pt   9.42521   5.82510   0.00000     6
  Pt   9.42521  -5.82510   0.00000     6
  Pt  -9.42521   5.82510   0.00000     6
  Pt  -9.42521  -5.82510   0.00000     6
  Pt   5.82510   0.00000   9.42521     6
  Pt   5.82510   0.00000  -9.42521     6
  Pt  -5.82510   0.00000   9.42521     6
  Pt  -5.82510   0.00000  -9.42521     6
  Pt   0.00000   9.42521   5.82510     6
  Pt   0.00000   9.42521  -5.82510     6
  Pt   0.00000  -9.42521   5.82510     6
  Pt   0.00000  -9.42521  -5.82510     6
  Pt   9.42521   2.91255   0.00000     8
  Pt   9.42521   0.00000   0.00000     8
  Pt   9.42521  -2.91255   0.00000     8
  Pt   8.52518   4.36883   2.35630     8
  Pt   7.62516   2.91255   4.71261     8
  Pt   6.72513   1.45628   7.06891     8
  Pt   8.52518  -4.36883   2.35630     8
  Pt   7.62516  -2.91255   4.71261     8
  Pt   6.72513  -1.45628   7.06891     8
  Pt   8.52518   1.45628   2.35630     9
  Pt   8.52518  -1.45628   2.35630     9
  Pt   7.62516  -0.00000   4.71261     9
  Pt   8.52518   4.36883  -2.35630     8
  Pt   7.62516   2.91255  -4.71261     8
  Pt   6.72513   1.45628  -7.06891     8
  Pt   8.52518  -4.36883  -2.35630     8
  Pt   7.62516  -2.91255  -4.71261     8
  Pt   6.72513  -1.45628  -7.06891     8
  Pt   8.52518   1.45628  -2.35630     9
  Pt   8.52518  -1.45628  -2.35630     9
  Pt   7.62516  -0.00000  -4.71261     9
  Pt   7.06891   6.72513   1.45628     8
  Pt   4.71261   7.62516   2.91255     8
  Pt   2.35630   8.52518   4.36883     8
  Pt   4.36883   2.35630   8.52518     8
  Pt   2.91255   4.71261   7.62516     8
  Pt   1.45628   7.06891   6.72513     8
  Pt   6.16888   5.26885   3.81258     9
  Pt   5.26885   3.81258   6.16888     9
  Pt   3.81258   6.16888   5.26885     9
  Pt   7.06891   6.72513  -1.45628     8
  Pt   4.71261   7.62516  -2.91255     8
  Pt   2.35630   8.52518  -4.36883     8
  Pt   4.36883   2.35630  -8.52518     8
  Pt   2.91255   4.71261  -7.62516     8
  Pt   1.45628   7.06891  -6.72513     8
  Pt   6.16888   5.26885  -3.81258     9
  Pt   5.26885   3.81258  -6.16888     9
  Pt   3.81258   6.16888  -5.26885     9
  Pt   0.00000   9.42521   2.91255     8
  Pt   0.00000   9.42521   0.00000     8
  Pt   0.00000   9.42521  -2.91255     8
  Pt   4.71261   7.62516   0.00000     9
  Pt   2.35630   8.52518   1.45628     9
  Pt   2.35630   8.52518  -1.45628     9
  Pt   7.06891  -6.72513   1.45628     8
  Pt   4.71261  -7.62516   2.91255     8
  Pt   2.35630  -8.52518   4.36883     8
  Pt   4.36883  -2.35630   8.52518     8
  Pt   2.91255  -4.71261   7.62516     8
  Pt   1.45628  -7.06891   6.72513     8
  Pt   6.16888  -5.26885   3.81258     9
  Pt   5.26885  -3.81258   6.16888     9
  Pt   3.81258  -6.16888   5.26885     9
  Pt   7.06891  -6.72513  -1.45628     8
  Pt   4.71261  -7.62516  -2.91255     8
  Pt   2.35630  -8.52518  -4.36883     8
  Pt   4.36883  -2.35630  -8.52518     8
  Pt   2.91255  -4.71261  -7.62516     8
  Pt   1.45628  -7.06891  -6.72513     8
  Pt   6.16888  -5.26885  -3.81258     9
  Pt   5.26885  -3.81258  -6.16888     9
  Pt   3.81258  -6.16888  -5.26885     9
  Pt   0.00000  -9.42521   2.91255     8
  Pt   0.00000  -9.42521   0.00000     8
  Pt   0.00000  -9.42521  -2.91255     8
  Pt   4.71261  -7.62516   0.00000     9
  Pt   2.35630  -8.52518   1.45628     9
  Pt   2.35630  -8.52518  -1.45628     9
  Pt  -9.42521   2.91255   0.00000     8
  Pt  -9.42521   0.00000   0.00000     8
  Pt  -9.42521  -2.91255   0.00000     8
  Pt  -8.52518   4.36883   2.35630     8
  Pt  -7.62516   2.91255   4.71261     8
  Pt  -6.72513   1.45628   7.06891     8
  Pt  -8.52518  -4.36883   2.35630     8
  Pt  -7.62516  -2.91255   4.71261     8
  Pt  -6.72513  -1.45628   7.06891     8
  Pt  -8.52518   1.45628   2.35630     9
  Pt  -8.52518  -1.45628   2.35630     9
  Pt  -7.62516  -0.00000   4.71261     9
  Pt  -8.52518   4.36883  -2.35630     8
  Pt  -7.62516   2.91255  -4.71261     8
  Pt  -6.72513   1.45628  -7.06891     8
  Pt  -8.52518  -4.36883  -2.35630     8
  Pt  -7.62516  -2.91255  -4.71261     8
  Pt  -6.72513  -1.45628  -7.06891     8
  Pt  -8.52518   1.45628  -2.35630     9
  Pt  -8.52518  -1.45628  -2.35630     9
  Pt  -7.62516  -0.00000  -4.71261     9
  Pt  -7.06891   6.72513   1.45628     8
  Pt  -4.71261   7.62516   2.91255     8
  Pt  -2.35630   8.52518   4.36883     8
  Pt  -4.36883   2.35630   8.52518     8
  Pt  -2.91255   4.71261   7.62516     8
  Pt  -1.45628   7.06891   6.72513     8
  Pt  -6.16888   5.26885   3.81258     9
  Pt  -5.26885   3.81258   6.16888     9
  Pt  -3.81258   6.16888   5.26885     9
  Pt  -7.06891   6.72513  -1.45628     8
  Pt  -4.71261   7.62516  -2.91255     8
  Pt  -2.35630   8.52518  -4.36883     8
  Pt  -4.36883   2.35630  -8.52518     8
  Pt  -2.91255   4.71261  -7.62516     8
  Pt  -1.45628   7.06891  -6.72513     8
  Pt  -6.16888   5.26885  -3.81258     9
  Pt  -5.26885   3.81258  -6.16888     9
  Pt  -3.81258   6.16888  -5.26885     9
  Pt  -4.71261   7.62516   0.00000     9
  Pt  -2.35630   8.52518   1.45628     9
  Pt  -2.35630   8.52518  -1.45628     9
  Pt  -7.06891  -6.72513   1.45628     8
  Pt  -4.71261  -7.62516   2.91255     8
  Pt  -2.35630  -8.52518   4.36883     8
  Pt  -4.36883  -2.35630   8.52518     8
  Pt  -2.91255  -4.71261   7.62516     8
  Pt  -1.45628  -7.06891   6.72513     8
  Pt  -6.16888  -5.26885   3.81258     9
  Pt  -5.26885  -3.81258   6.16888     9
  Pt  -3.81258  -6.16888   5.26885     9
  Pt  -7.06891  -6.72513  -1.45628     8
  Pt  -4.71261  -7.62516  -2.91255     8
  Pt  -2.35630  -8.52518  -4.36883     8
  Pt  -4.36883  -2.35630  -8.52518     8
  Pt  -2.91255  -4.71261  -7.62516     8
  Pt  -1.45628  -7.06891  -6.72513     8
  Pt  -6.16888  -5.26885  -3.81258     9
  Pt  -5.26885  -3.81258  -6.16888     9
  Pt  -3.81258  -6.16888  -5.26885     9
  Pt  -4.71261  -7.62516   0.00000     9
  Pt  -2.35630  -8.52518   1.45628     9
  Pt  -2.35630  -8.52518  -1.45628     9
  Pt   2.91255   0.00000   9.42521     8
  Pt   0.00000   0.00000   9.42521     8
  Pt  -2.91255   0.00000   9.42521     8
  Pt   1.45628   2.35630   8.52518     9
  Pt  -1.45628   2.35630   8.52518     9
  Pt  -0.00000   4.71261   7.62516     9
  Pt   1.45628  -2.35630   8.52518     9
  Pt  -1.45628  -2.35630   8.52518     9
  Pt  -0.00000  -4.71261   7.62516     9
  Pt   2.91255   0.00000  -9.42521     8
  Pt   0.00000   0.00000  -9.42521     8
  Pt  -2.91255   0.00000  -9.42521     8
  Pt   1.45628   2.35630  -8.52518     9
  Pt  -1.45628   2.35630  -8.52518     9
  Pt  -0.00000   4.71261  -7.62516     9
  Pt   1.45628  -2.35630  -8.52518     9
  Pt  -1.45628  -2.35630  -8.52518     9
  Pt  -0.00000  -4.71261  -7.62516     9
