         976
 Pt Pt
  Pt  11.08000   0.00000   0.00000   1
  Pt  13.85000   0.00000   0.00000   1
  Pt  16.62000   0.00000   0.00000   1
  Pt  19.39000   0.00000   0.00000   1
  Pt   8.31000   2.77000   0.00000   1
  Pt  11.08000   2.77000   0.00000   1
  Pt  13.85000   2.77000   0.00000   1
  Pt  16.62000   2.77000   0.00000   1
  Pt  19.39000   2.77000   0.00000   1
  Pt  22.16000   2.77000   0.00000   1
  Pt   5.54000   5.54000   0.00000   1
  Pt   8.31000   5.54000   0.00000   1
  Pt  11.08000   5.54000   0.00000   1
  Pt  13.85000   5.54000   0.00000   1
  Pt  16.62000   5.54000   0.00000   1
  Pt  19.39000   5.54000   0.00000   1
  Pt  22.16000   5.54000   0.00000   1
  Pt  24.93000   5.54000   0.00000   1
  Pt   2.77000   8.31000   0.00000   1
  Pt   5.54000   8.31000   0.00000   1
  Pt   8.31000   8.31000   0.00000   1
  Pt  11.08000   8.31000   0.00000   1
  Pt  13.85000   8.31000   0.00000   1
  Pt  16.62000   8.31000   0.00000   1
  Pt  19.39000   8.31000   0.00000   1
  Pt  22.16000   8.31000   0.00000   1
  Pt  24.93000   8.31000   0.00000   1
  Pt  27.70000   8.31000   0.00000   1
  Pt   0.00000  11.08000   0.00000   1
  Pt   2.77000  11.08000   0.00000   1
  Pt   5.54000  11.08000   0.00000   1
  Pt   8.31000  11.08000   0.00000   1
  Pt  11.08000  11.08000   0.00000   1
  Pt  13.85000  11.08000   0.00000   1
  Pt  16.62000  11.08000   0.00000   1
  Pt  19.39000  11.08000   0.00000   1
  Pt  22.16000  11.08000   0.00000   1
  Pt  24.93000  11.08000   0.00000   1
  Pt  27.70000  11.08000   0.00000   1
  Pt  30.47000  11.08000   0.00000   1
  Pt   0.00000  13.85000   0.00000   1
  Pt   2.77000  13.85000   0.00000   1
  Pt   5.54000  13.85000   0.00000   1
  Pt   8.31000  13.85000   0.00000   1
  Pt  11.08000  13.85000   0.00000   1
  Pt  13.85000  13.85000   0.00000   1
  Pt  16.62000  13.85000   0.00000   1
  Pt  19.39000  13.85000   0.00000   1
  Pt  22.16000  13.85000   0.00000   1
  Pt  24.93000  13.85000   0.00000   1
  Pt  27.70000  13.85000   0.00000   1
  Pt  30.47000  13.85000   0.00000   1
  Pt   0.00000  16.62000   0.00000   1
  Pt   2.77000  16.62000   0.00000   1
  Pt   5.54000  16.62000   0.00000   1
  Pt   8.31000  16.62000   0.00000   1
  Pt  11.08000  16.62000   0.00000   1
  Pt  13.85000  16.62000   0.00000   1
  Pt  16.62000  16.62000   0.00000   1
  Pt  19.39000  16.62000   0.00000   1
  Pt  22.16000  16.62000   0.00000   1
  Pt  24.93000  16.62000   0.00000   1
  Pt  27.70000  16.62000   0.00000   1
  Pt  30.47000  16.62000   0.00000   1
  Pt   0.00000  19.39000   0.00000   1
  Pt   2.77000  19.39000   0.00000   1
  Pt   5.54000  19.39000   0.00000   1
  Pt   8.31000  19.39000   0.00000   1
  Pt  11.08000  19.39000   0.00000   1
  Pt  13.85000  19.39000   0.00000   1
  Pt  16.62000  19.39000   0.00000   1
  Pt  19.39000  19.39000   0.00000   1
  Pt  22.16000  19.39000   0.00000   1
  Pt  24.93000  19.39000   0.00000   1
  Pt  27.70000  19.39000   0.00000   1
  Pt  30.47000  19.39000   0.00000   1
  Pt   2.77000  22.16000   0.00000   1
  Pt   5.54000  22.16000   0.00000   1
  Pt   8.31000  22.16000   0.00000   1
  Pt  11.08000  22.16000   0.00000   1
  Pt  13.85000  22.16000   0.00000   1
  Pt  16.62000  22.16000   0.00000   1
  Pt  19.39000  22.16000   0.00000   1
  Pt  22.16000  22.16000   0.00000   1
  Pt  24.93000  22.16000   0.00000   1
  Pt  27.70000  22.16000   0.00000   1
  Pt   5.54000  24.93000   0.00000   1
  Pt   8.31000  24.93000   0.00000   1
  Pt  11.08000  24.93000   0.00000   1
  Pt  13.85000  24.93000   0.00000   1
  Pt  16.62000  24.93000   0.00000   1
  Pt  19.39000  24.93000   0.00000   1
  Pt  22.16000  24.93000   0.00000   1
  Pt  24.93000  24.93000   0.00000   1
  Pt   8.31000  27.70000   0.00000   1
  Pt  11.08000  27.70000   0.00000   1
  Pt  13.85000  27.70000   0.00000   1
  Pt  16.62000  27.70000   0.00000   1
  Pt  19.39000  27.70000   0.00000   1
  Pt  22.16000  27.70000   0.00000   1
  Pt  11.08000  30.47000   0.00000   1
  Pt  13.85000  30.47000   0.00000   1
  Pt  16.62000  30.47000   0.00000   1
  Pt  19.39000  30.47000   0.00000   1
  Pt   9.69500   1.38500   1.95869   1
  Pt  12.46500   1.38500   1.95869   1
  Pt  15.23500   1.38500   1.95869   1
  Pt  18.00500   1.38500   1.95869   1
  Pt  20.77500   1.38500   1.95869   1
  Pt   6.92500   4.15500   1.95869   1
  Pt   9.69500   4.15500   1.95869   1
  Pt  12.46500   4.15500   1.95869   1
  Pt  15.23500   4.15500   1.95869   1
  Pt  18.00500   4.15500   1.95869   1
  Pt  20.77500   4.15500   1.95869   1
  Pt  23.54500   4.15500   1.95869   1
  Pt   4.15500   6.92500   1.95869   1
  Pt   6.92500   6.92500   1.95869   1
  Pt   9.69500   6.92500   1.95869   1
  Pt  12.46500   6.92500   1.95869   1
  Pt  15.23500   6.92500   1.95869   1
  Pt  18.00500   6.92500   1.95869   1
  Pt  20.77500   6.92500   1.95869   1
  Pt  23.54500   6.92500   1.95869   1
  Pt  26.31500   6.92500   1.95869   1
  Pt   1.38500   9.69500   1.95869   1
  Pt   4.15500   9.69500   1.95869   1
  Pt   6.92500   9.69500   1.95869   1
  Pt   9.69500   9.69500   1.95869   1
  Pt  12.46500   9.69500   1.95869   1
  Pt  15.23500   9.69500   1.95869   1
  Pt  18.00500   9.69500   1.95869   1
  Pt  20.77500   9.69500   1.95869   1
  Pt  23.54500   9.69500   1.95869   1
  Pt  26.31500   9.69500   1.95869   1
  Pt  29.08500   9.69500   1.95869   1
  Pt   1.38500  12.46500   1.95869   1
  Pt   4.15500  12.46500   1.95869   1
  Pt   6.92500  12.46500   1.95869   1
  Pt   9.69500  12.46500   1.95869   1
  Pt  12.46500  12.46500   1.95869   1
  Pt  15.23500  12.46500   1.95869   1
  Pt  18.00500  12.46500   1.95869   1
  Pt  20.77500  12.46500   1.95869   1
  Pt  23.54500  12.46500   1.95869   1
  Pt  26.31500  12.46500   1.95869   1
  Pt  29.08500  12.46500   1.95869   1
  Pt   1.38500  15.23500   1.95869   1
  Pt   4.15500  15.23500   1.95869   1
  Pt   6.92500  15.23500   1.95869   1
  Pt   9.69500  15.23500   1.95869   1
  Pt  12.46500  15.23500   1.95869   1
  Pt  15.23500  15.23500   1.95869   1
  Pt  18.00500  15.23500   1.95869   1
  Pt  20.77500  15.23500   1.95869   1
  Pt  23.54500  15.23500   1.95869   1
  Pt  26.31500  15.23500   1.95869   1
  Pt  29.08500  15.23500   1.95869   1
  Pt   1.38500  18.00500   1.95869   1
  Pt   4.15500  18.00500   1.95869   1
  Pt   6.92500  18.00500   1.95869   1
  Pt   9.69500  18.00500   1.95869   1
  Pt  12.46500  18.00500   1.95869   1
  Pt  15.23500  18.00500   1.95869   1
  Pt  18.00500  18.00500   1.95869   1
  Pt  20.77500  18.00500   1.95869   1
  Pt  23.54500  18.00500   1.95869   1
  Pt  26.31500  18.00500   1.95869   1
  Pt  29.08500  18.00500   1.95869   1
  Pt   1.38500  20.77500   1.95869   1
  Pt   4.15500  20.77500   1.95869   1
  Pt   6.92500  20.77500   1.95869   1
  Pt   9.69500  20.77500   1.95869   1
  Pt  12.46500  20.77500   1.95869   1
  Pt  15.23500  20.77500   1.95869   1
  Pt  18.00500  20.77500   1.95869   1
  Pt  20.77500  20.77500   1.95869   1
  Pt  23.54500  20.77500   1.95869   1
  Pt  26.31500  20.77500   1.95869   1
  Pt  29.08500  20.77500   1.95869   1
  Pt   4.15500  23.54500   1.95869   1
  Pt   6.92500  23.54500   1.95869   1
  Pt   9.69500  23.54500   1.95869   1
  Pt  12.46500  23.54500   1.95869   1
  Pt  15.23500  23.54500   1.95869   1
  Pt  18.00500  23.54500   1.95869   1
  Pt  20.77500  23.54500   1.95869   1
  Pt  23.54500  23.54500   1.95869   1
  Pt  26.31500  23.54500   1.95869   1
  Pt   6.92500  26.31500   1.95869   1
  Pt   9.69500  26.31500   1.95869   1
  Pt  12.46500  26.31500   1.95869   1
  Pt  15.23500  26.31500   1.95869   1
  Pt  18.00500  26.31500   1.95869   1
  Pt  20.77500  26.31500   1.95869   1
  Pt  23.54500  26.31500   1.95869   1
  Pt   9.69500  29.08500   1.95869   1
  Pt  12.46500  29.08500   1.95869   1
  Pt  15.23500  29.08500   1.95869   1
  Pt  18.00500  29.08500   1.95869   1
  Pt  20.77500  29.08500   1.95869   1
  Pt   8.31000   2.77000   3.91737   1
  Pt  11.08000   2.77000   3.91737   1
  Pt  13.85000   2.77000   3.91737   1
  Pt  16.62000   2.77000   3.91737   1
  Pt  19.39000   2.77000   3.91737   1
  Pt  22.16000   2.77000   3.91737   1
  Pt   5.54000   5.54000   3.91737   1
  Pt   8.31000   5.54000   3.91737   1
  Pt  11.08000   5.54000   3.91737   1
  Pt  13.85000   5.54000   3.91737   1
  Pt  16.62000   5.54000   3.91737   1
  Pt  19.39000   5.54000   3.91737   1
  Pt  22.16000   5.54000   3.91737   1
  Pt  24.93000   5.54000   3.91737   1
  Pt   2.77000   8.31000   3.91737   1
  Pt   5.54000   8.31000   3.91737   1
  Pt   8.31000   8.31000   3.91737   1
  Pt  11.08000   8.31000   3.91737   1
  Pt  13.85000   8.31000   3.91737   1
  Pt  16.62000   8.31000   3.91737   1
  Pt  19.39000   8.31000   3.91737   1
  Pt  22.16000   8.31000   3.91737   1
  Pt  24.93000   8.31000   3.91737   1
  Pt  27.70000   8.31000   3.91737   1
  Pt   2.77000  11.08000   3.91737   1
  Pt   5.54000  11.08000   3.91737   1
  Pt   8.31000  11.08000   3.91737   1
  Pt  11.08000  11.08000   3.91737   1
  Pt  13.85000  11.08000   3.91737   1
  Pt  16.62000  11.08000   3.91737   1
  Pt  19.39000  11.08000   3.91737   1
  Pt  22.16000  11.08000   3.91737   1
  Pt  24.93000  11.08000   3.91737   1
  Pt  27.70000  11.08000   3.91737   1
  Pt   2.77000  13.85000   3.91737   1
  Pt   5.54000  13.85000   3.91737   1
  Pt   8.31000  13.85000   3.91737   1
  Pt  11.08000  13.85000   3.91737   1
  Pt  13.85000  13.85000   3.91737   1
  Pt  16.62000  13.85000   3.91737   1
  Pt  19.39000  13.85000   3.91737   1
  Pt  22.16000  13.85000   3.91737   1
  Pt  24.93000  13.85000   3.91737   1
  Pt  27.70000  13.85000   3.91737   1
  Pt   2.77000  16.62000   3.91737   1
  Pt   5.54000  16.62000   3.91737   1
  Pt   8.31000  16.62000   3.91737   1
  Pt  11.08000  16.62000   3.91737   1
  Pt  13.85000  16.62000   3.91737   1
  Pt  16.62000  16.62000   3.91737   1
  Pt  19.39000  16.62000   3.91737   1
  Pt  22.16000  16.62000   3.91737   1
  Pt  24.93000  16.62000   3.91737   1
  Pt  27.70000  16.62000   3.91737   1
  Pt   2.77000  19.39000   3.91737   1
  Pt   5.54000  19.39000   3.91737   1
  Pt   8.31000  19.39000   3.91737   1
  Pt  11.08000  19.39000   3.91737   1
  Pt  13.85000  19.39000   3.91737   1
  Pt  16.62000  19.39000   3.91737   1
  Pt  19.39000  19.39000   3.91737   1
  Pt  22.16000  19.39000   3.91737   1
  Pt  24.93000  19.39000   3.91737   1
  Pt  27.70000  19.39000   3.91737   1
  Pt   2.77000  22.16000   3.91737   1
  Pt   5.54000  22.16000   3.91737   1
  Pt   8.31000  22.16000   3.91737   1
  Pt  11.08000  22.16000   3.91737   1
  Pt  13.85000  22.16000   3.91737   1
  Pt  16.62000  22.16000   3.91737   1
  Pt  19.39000  22.16000   3.91737   1
  Pt  22.16000  22.16000   3.91737   1
  Pt  24.93000  22.16000   3.91737   1
  Pt  27.70000  22.16000   3.91737   1
  Pt   5.54000  24.93000   3.91737   1
  Pt   8.31000  24.93000   3.91737   1
  Pt  11.08000  24.93000   3.91737   1
  Pt  13.85000  24.93000   3.91737   1
  Pt  16.62000  24.93000   3.91737   1
  Pt  19.39000  24.93000   3.91737   1
  Pt  22.16000  24.93000   3.91737   1
  Pt  24.93000  24.93000   3.91737   1
  Pt   8.31000  27.70000   3.91737   1
  Pt  11.08000  27.70000   3.91737   1
  Pt  13.85000  27.70000   3.91737   1
  Pt  16.62000  27.70000   3.91737   1
  Pt  19.39000  27.70000   3.91737   1
  Pt  22.16000  27.70000   3.91737   1
  Pt   6.92500   4.15500   5.87606   1
  Pt   9.69500   4.15500   5.87606   1
  Pt  12.46500   4.15500   5.87606   1
  Pt  15.23500   4.15500   5.87606   1
  Pt  18.00500   4.15500   5.87606   1
  Pt  20.77500   4.15500   5.87606   1
  Pt  23.54500   4.15500   5.87606   1
  Pt   4.15500   6.92500   5.87606   1
  Pt   6.92500   6.92500   5.87606   1
  Pt   9.69500   6.92500   5.87606   1
  Pt  12.46500   6.92500   5.87606   1
  Pt  15.23500   6.92500   5.87606   1
  Pt  18.00500   6.92500   5.87606   1
  Pt  20.77500   6.92500   5.87606   1
  Pt  23.54500   6.92500   5.87606   1
  Pt  26.31500   6.92500   5.87606   1
  Pt   4.15500   9.69500   5.87606   1
  Pt   6.92500   9.69500   5.87606   1
  Pt   9.69500   9.69500   5.87606   1
  Pt  12.46500   9.69500   5.87606   1
  Pt  15.23500   9.69500   5.87606   1
  Pt  18.00500   9.69500   5.87606   1
  Pt  20.77500   9.69500   5.87606   1
  Pt  23.54500   9.69500   5.87606   1
  Pt  26.31500   9.69500   5.87606   1
  Pt   4.15500  12.46500   5.87606   1
  Pt   6.92500  12.46500   5.87606   1
  Pt   9.69500  12.46500   5.87606   1
  Pt  12.46500  12.46500   5.87606   1
  Pt  15.23500  12.46500   5.87606   1
  Pt  18.00500  12.46500   5.87606   1
  Pt  20.77500  12.46500   5.87606   1
  Pt  23.54500  12.46500   5.87606   1
  Pt  26.31500  12.46500   5.87606   1
  Pt   4.15500  15.23500   5.87606   1
  Pt   6.92500  15.23500   5.87606   1
  Pt   9.69500  15.23500   5.87606   1
  Pt  12.46500  15.23500   5.87606   1
  Pt  15.23500  15.23500   5.87606   1
  Pt  18.00500  15.23500   5.87606   1
  Pt  20.77500  15.23500   5.87606   1
  Pt  23.54500  15.23500   5.87606   1
  Pt  26.31500  15.23500   5.87606   1
  Pt   4.15500  18.00500   5.87606   1
  Pt   6.92500  18.00500   5.87606   1
  Pt   9.69500  18.00500   5.87606   1
  Pt  12.46500  18.00500   5.87606   1
  Pt  15.23500  18.00500   5.87606   1
  Pt  18.00500  18.00500   5.87606   1
  Pt  20.77500  18.00500   5.87606   1
  Pt  23.54500  18.00500   5.87606   1
  Pt  26.31500  18.00500   5.87606   1
  Pt   4.15500  20.77500   5.87606   1
  Pt   6.92500  20.77500   5.87606   1
  Pt   9.69500  20.77500   5.87606   1
  Pt  12.46500  20.77500   5.87606   1
  Pt  15.23500  20.77500   5.87606   1
  Pt  18.00500  20.77500   5.87606   1
  Pt  20.77500  20.77500   5.87606   1
  Pt  23.54500  20.77500   5.87606   1
  Pt  26.31500  20.77500   5.87606   1
  Pt   4.15500  23.54500   5.87606   1
  Pt   6.92500  23.54500   5.87606   1
  Pt   9.69500  23.54500   5.87606   1
  Pt  12.46500  23.54500   5.87606   1
  Pt  15.23500  23.54500   5.87606   1
  Pt  18.00500  23.54500   5.87606   1
  Pt  20.77500  23.54500   5.87606   1
  Pt  23.54500  23.54500   5.87606   1
  Pt  26.31500  23.54500   5.87606   1
  Pt   6.92500  26.31500   5.87606   1
  Pt   9.69500  26.31500   5.87606   1
  Pt  12.46500  26.31500   5.87606   1
  Pt  15.23500  26.31500   5.87606   1
  Pt  18.00500  26.31500   5.87606   1
  Pt  20.77500  26.31500   5.87606   1
  Pt  23.54500  26.31500   5.87606   1
  Pt   5.54000   5.54000   7.83474   1
  Pt   8.31000   5.54000   7.83474   1
  Pt  11.08000   5.54000   7.83474   1
  Pt  13.85000   5.54000   7.83474   1
  Pt  16.62000   5.54000   7.83474   1
  Pt  19.39000   5.54000   7.83474   1
  Pt  22.16000   5.54000   7.83474   1
  Pt  24.93000   5.54000   7.83474   1
  Pt   5.54000   8.31000   7.83474   1
  Pt   8.31000   8.31000   7.83474   1
  Pt  11.08000   8.31000   7.83474   1
  Pt  13.85000   8.31000   7.83474   1
  Pt  16.62000   8.31000   7.83474   1
  Pt  19.39000   8.31000   7.83474   1
  Pt  22.16000   8.31000   7.83474   1
  Pt  24.93000   8.31000   7.83474   1
  Pt   5.54000  11.08000   7.83474   1
  Pt   8.31000  11.08000   7.83474   1
  Pt  11.08000  11.08000   7.83474   1
  Pt  13.85000  11.08000   7.83474   1
  Pt  16.62000  11.08000   7.83474   1
  Pt  19.39000  11.08000   7.83474   1
  Pt  22.16000  11.08000   7.83474   1
  Pt  24.93000  11.08000   7.83474   1
  Pt   5.54000  13.85000   7.83474   1
  Pt   8.31000  13.85000   7.83474   1
  Pt  11.08000  13.85000   7.83474   1
  Pt  13.85000  13.85000   7.83474   1
  Pt  16.62000  13.85000   7.83474   1
  Pt  19.39000  13.85000   7.83474   1
  Pt  22.16000  13.85000   7.83474   1
  Pt  24.93000  13.85000   7.83474   1
  Pt   5.54000  16.62000   7.83474   1
  Pt   8.31000  16.62000   7.83474   1
  Pt  11.08000  16.62000   7.83474   1
  Pt  13.85000  16.62000   7.83474   1
  Pt  16.62000  16.62000   7.83474   1
  Pt  19.39000  16.62000   7.83474   1
  Pt  22.16000  16.62000   7.83474   1
  Pt  24.93000  16.62000   7.83474   1
  Pt   5.54000  19.39000   7.83474   1
  Pt   8.31000  19.39000   7.83474   1
  Pt  11.08000  19.39000   7.83474   1
  Pt  13.85000  19.39000   7.83474   1
  Pt  16.62000  19.39000   7.83474   1
  Pt  19.39000  19.39000   7.83474   1
  Pt  22.16000  19.39000   7.83474   1
  Pt  24.93000  19.39000   7.83474   1
  Pt   5.54000  22.16000   7.83474   1
  Pt   8.31000  22.16000   7.83474   1
  Pt  11.08000  22.16000   7.83474   1
  Pt  13.85000  22.16000   7.83474   1
  Pt  16.62000  22.16000   7.83474   1
  Pt  19.39000  22.16000   7.83474   1
  Pt  22.16000  22.16000   7.83474   1
  Pt  24.93000  22.16000   7.83474   1
  Pt   5.54000  24.93000   7.83474   1
  Pt   8.31000  24.93000   7.83474   1
  Pt  11.08000  24.93000   7.83474   1
  Pt  13.85000  24.93000   7.83474   1
  Pt  16.62000  24.93000   7.83474   1
  Pt  19.39000  24.93000   7.83474   1
  Pt  22.16000  24.93000   7.83474   1
  Pt  24.93000  24.93000   7.83474   1
  Pt   6.92500   6.92500   9.79343   1
  Pt   9.69500   6.92500   9.79343   1
  Pt  12.46500   6.92500   9.79343   1
  Pt  15.23500   6.92500   9.79343   1
  Pt  18.00500   6.92500   9.79343   1
  Pt  20.77500   6.92500   9.79343   1
  Pt  23.54500   6.92500   9.79343   1
  Pt   6.92500   9.69500   9.79343   1
  Pt   9.69500   9.69500   9.79343   1
  Pt  12.46500   9.69500   9.79343   1
  Pt  15.23500   9.69500   9.79343   1
  Pt  18.00500   9.69500   9.79343   1
  Pt  20.77500   9.69500   9.79343   1
  Pt  23.54500   9.69500   9.79343   1
  Pt   6.92500  12.46500   9.79343   1
  Pt   9.69500  12.46500   9.79343   1
  Pt  12.46500  12.46500   9.79343   1
  Pt  15.23500  12.46500   9.79343   1
  Pt  18.00500  12.46500   9.79343   1
  Pt  20.77500  12.46500   9.79343   1
  Pt  23.54500  12.46500   9.79343   1
  Pt   6.92500  15.23500   9.79343   1
  Pt   9.69500  15.23500   9.79343   1
  Pt  12.46500  15.23500   9.79343   1
  Pt  15.23500  15.23500   9.79343   1
  Pt  18.00500  15.23500   9.79343   1
  Pt  20.77500  15.23500   9.79343   1
  Pt  23.54500  15.23500   9.79343   1
  Pt   6.92500  18.00500   9.79343   1
  Pt   9.69500  18.00500   9.79343   1
  Pt  12.46500  18.00500   9.79343   1
  Pt  15.23500  18.00500   9.79343   1
  Pt  18.00500  18.00500   9.79343   1
  Pt  20.77500  18.00500   9.79343   1
  Pt  23.54500  18.00500   9.79343   1
  Pt   6.92500  20.77500   9.79343   1
  Pt   9.69500  20.77500   9.79343   1
  Pt  12.46500  20.77500   9.79343   1
  Pt  15.23500  20.77500   9.79343   1
  Pt  18.00500  20.77500   9.79343   1
  Pt  20.77500  20.77500   9.79343   1
  Pt  23.54500  20.77500   9.79343   1
  Pt   6.92500  23.54500   9.79343   1
  Pt   9.69500  23.54500   9.79343   1
  Pt  12.46500  23.54500   9.79343   1
  Pt  15.23500  23.54500   9.79343   1
  Pt  18.00500  23.54500   9.79343   1
  Pt  20.77500  23.54500   9.79343   1
  Pt  23.54500  23.54500   9.79343   1
  Pt   8.31000   8.31000  11.75211   1
  Pt  11.08000   8.31000  11.75211   1
  Pt  13.85000   8.31000  11.75211   1
  Pt  16.62000   8.31000  11.75211   1
  Pt  19.39000   8.31000  11.75211   1
  Pt  22.16000   8.31000  11.75211   1
  Pt   8.31000  11.08000  11.75211   1
  Pt  11.08000  11.08000  11.75211   1
  Pt  13.85000  11.08000  11.75211   1
  Pt  16.62000  11.08000  11.75211   1
  Pt  19.39000  11.08000  11.75211   1
  Pt  22.16000  11.08000  11.75211   1
  Pt   8.31000  13.85000  11.75211   1
  Pt  11.08000  13.85000  11.75211   1
  Pt  13.85000  13.85000  11.75211   1
  Pt  16.62000  13.85000  11.75211   1
  Pt  19.39000  13.85000  11.75211   1
  Pt  22.16000  13.85000  11.75211   1
  Pt   8.31000  16.62000  11.75211   1
  Pt  11.08000  16.62000  11.75211   1
  Pt  13.85000  16.62000  11.75211   1
  Pt  16.62000  16.62000  11.75211   1
  Pt  19.39000  16.62000  11.75211   1
  Pt  22.16000  16.62000  11.75211   1
  Pt   8.31000  19.39000  11.75211   1
  Pt  11.08000  19.39000  11.75211   1
  Pt  13.85000  19.39000  11.75211   1
  Pt  16.62000  19.39000  11.75211   1
  Pt  19.39000  19.39000  11.75211   1
  Pt  22.16000  19.39000  11.75211   1
  Pt   8.31000  22.16000  11.75211   1
  Pt  11.08000  22.16000  11.75211   1
  Pt  13.85000  22.16000  11.75211   1
  Pt  16.62000  22.16000  11.75211   1
  Pt  19.39000  22.16000  11.75211   1
  Pt  22.16000  22.16000  11.75211   1
  Pt   9.69500   9.69500  13.71080   1
  Pt  12.46500   9.69500  13.71080   1
  Pt  15.23500   9.69500  13.71080   1
  Pt  18.00500   9.69500  13.71080   1
  Pt  20.77500   9.69500  13.71080   1
  Pt   9.69500  12.46500  13.71080   1
  Pt  12.46500  12.46500  13.71080   1
  Pt  15.23500  12.46500  13.71080   1
  Pt  18.00500  12.46500  13.71080   1
  Pt  20.77500  12.46500  13.71080   1
  Pt   9.69500  15.23500  13.71080   1
  Pt  12.46500  15.23500  13.71080   1
  Pt  15.23500  15.23500  13.71080   1
  Pt  18.00500  15.23500  13.71080   1
  Pt  20.77500  15.23500  13.71080   1
  Pt   9.69500  18.00500  13.71080   1
  Pt  12.46500  18.00500  13.71080   1
  Pt  15.23500  18.00500  13.71080   1
  Pt  18.00500  18.00500  13.71080   1
  Pt  20.77500  18.00500  13.71080   1
  Pt   9.69500  20.77500  13.71080   1
  Pt  12.46500  20.77500  13.71080   1
  Pt  15.23500  20.77500  13.71080   1
  Pt  18.00500  20.77500  13.71080   1
  Pt  20.77500  20.77500  13.71080   1
  Pt   9.69500   1.38500  -1.95869   1
  Pt  12.46500   1.38500  -1.95869   1
  Pt  15.23500   1.38500  -1.95869   1
  Pt  18.00500   1.38500  -1.95869   1
  Pt  20.77500   1.38500  -1.95869   1
  Pt   6.92500   4.15500  -1.95869   1
  Pt   9.69500   4.15500  -1.95869   1
  Pt  12.46500   4.15500  -1.95869   1
  Pt  15.23500   4.15500  -1.95869   1
  Pt  18.00500   4.15500  -1.95869   1
  Pt  20.77500   4.15500  -1.95869   1
  Pt  23.54500   4.15500  -1.95869   1
  Pt   4.15500   6.92500  -1.95869   1
  Pt   6.92500   6.92500  -1.95869   1
  Pt   9.69500   6.92500  -1.95869   1
  Pt  12.46500   6.92500  -1.95869   1
  Pt  15.23500   6.92500  -1.95869   1
  Pt  18.00500   6.92500  -1.95869   1
  Pt  20.77500   6.92500  -1.95869   1
  Pt  23.54500   6.92500  -1.95869   1
  Pt  26.31500   6.92500  -1.95869   1
  Pt   1.38500   9.69500  -1.95869   1
  Pt   4.15500   9.69500  -1.95869   1
  Pt   6.92500   9.69500  -1.95869   1
  Pt   9.69500   9.69500  -1.95869   1
  Pt  12.46500   9.69500  -1.95869   1
  Pt  15.23500   9.69500  -1.95869   1
  Pt  18.00500   9.69500  -1.95869   1
  Pt  20.77500   9.69500  -1.95869   1
  Pt  23.54500   9.69500  -1.95869   1
  Pt  26.31500   9.69500  -1.95869   1
  Pt  29.08500   9.69500  -1.95869   1
  Pt   1.38500  12.46500  -1.95869   1
  Pt   4.15500  12.46500  -1.95869   1
  Pt   6.92500  12.46500  -1.95869   1
  Pt   9.69500  12.46500  -1.95869   1
  Pt  12.46500  12.46500  -1.95869   1
  Pt  15.23500  12.46500  -1.95869   1
  Pt  18.00500  12.46500  -1.95869   1
  Pt  20.77500  12.46500  -1.95869   1
  Pt  23.54500  12.46500  -1.95869   1
  Pt  26.31500  12.46500  -1.95869   1
  Pt  29.08500  12.46500  -1.95869   1
  Pt   1.38500  15.23500  -1.95869   1
  Pt   4.15500  15.23500  -1.95869   1
  Pt   6.92500  15.23500  -1.95869   1
  Pt   9.69500  15.23500  -1.95869   1
  Pt  12.46500  15.23500  -1.95869   1
  Pt  15.23500  15.23500  -1.95869   1
  Pt  18.00500  15.23500  -1.95869   1
  Pt  20.77500  15.23500  -1.95869   1
  Pt  23.54500  15.23500  -1.95869   1
  Pt  26.31500  15.23500  -1.95869   1
  Pt  29.08500  15.23500  -1.95869   1
  Pt   1.38500  18.00500  -1.95869   1
  Pt   4.15500  18.00500  -1.95869   1
  Pt   6.92500  18.00500  -1.95869   1
  Pt   9.69500  18.00500  -1.95869   1
  Pt  12.46500  18.00500  -1.95869   1
  Pt  15.23500  18.00500  -1.95869   1
  Pt  18.00500  18.00500  -1.95869   1
  Pt  20.77500  18.00500  -1.95869   1
  Pt  23.54500  18.00500  -1.95869   1
  Pt  26.31500  18.00500  -1.95869   1
  Pt  29.08500  18.00500  -1.95869   1
  Pt   1.38500  20.77500  -1.95869   1
  Pt   4.15500  20.77500  -1.95869   1
  Pt   6.92500  20.77500  -1.95869   1
  Pt   9.69500  20.77500  -1.95869   1
  Pt  12.46500  20.77500  -1.95869   1
  Pt  15.23500  20.77500  -1.95869   1
  Pt  18.00500  20.77500  -1.95869   1
  Pt  20.77500  20.77500  -1.95869   1
  Pt  23.54500  20.77500  -1.95869   1
  Pt  26.31500  20.77500  -1.95869   1
  Pt  29.08500  20.77500  -1.95869   1
  Pt   4.15500  23.54500  -1.95869   1
  Pt   6.92500  23.54500  -1.95869   1
  Pt   9.69500  23.54500  -1.95869   1
  Pt  12.46500  23.54500  -1.95869   1
  Pt  15.23500  23.54500  -1.95869   1
  Pt  18.00500  23.54500  -1.95869   1
  Pt  20.77500  23.54500  -1.95869   1
  Pt  23.54500  23.54500  -1.95869   1
  Pt  26.31500  23.54500  -1.95869   1
  Pt   6.92500  26.31500  -1.95869   1
  Pt   9.69500  26.31500  -1.95869   1
  Pt  12.46500  26.31500  -1.95869   1
  Pt  15.23500  26.31500  -1.95869   1
  Pt  18.00500  26.31500  -1.95869   1
  Pt  20.77500  26.31500  -1.95869   1
  Pt  23.54500  26.31500  -1.95869   1
  Pt   9.69500  29.08500  -1.95869   1
  Pt  12.46500  29.08500  -1.95869   1
  Pt  15.23500  29.08500  -1.95869   1
  Pt  18.00500  29.08500  -1.95869   1
  Pt  20.77500  29.08500  -1.95869   1
  Pt   8.31000   2.77000  -3.91737   1
  Pt  11.08000   2.77000  -3.91737   1
  Pt  13.85000   2.77000  -3.91737   1
  Pt  16.62000   2.77000  -3.91737   1
  Pt  19.39000   2.77000  -3.91737   1
  Pt  22.16000   2.77000  -3.91737   1
  Pt   5.54000   5.54000  -3.91737   1
  Pt   8.31000   5.54000  -3.91737   1
  Pt  11.08000   5.54000  -3.91737   1
  Pt  13.85000   5.54000  -3.91737   1
  Pt  16.62000   5.54000  -3.91737   1
  Pt  19.39000   5.54000  -3.91737   1
  Pt  22.16000   5.54000  -3.91737   1
  Pt  24.93000   5.54000  -3.91737   1
  Pt   2.77000   8.31000  -3.91737   1
  Pt   5.54000   8.31000  -3.91737   1
  Pt   8.31000   8.31000  -3.91737   1
  Pt  11.08000   8.31000  -3.91737   1
  Pt  13.85000   8.31000  -3.91737   1
  Pt  16.62000   8.31000  -3.91737   1
  Pt  19.39000   8.31000  -3.91737   1
  Pt  22.16000   8.31000  -3.91737   1
  Pt  24.93000   8.31000  -3.91737   1
  Pt  27.70000   8.31000  -3.91737   1
  Pt   2.77000  11.08000  -3.91737   1
  Pt   5.54000  11.08000  -3.91737   1
  Pt   8.31000  11.08000  -3.91737   1
  Pt  11.08000  11.08000  -3.91737   1
  Pt  13.85000  11.08000  -3.91737   1
  Pt  16.62000  11.08000  -3.91737   1
  Pt  19.39000  11.08000  -3.91737   1
  Pt  22.16000  11.08000  -3.91737   1
  Pt  24.93000  11.08000  -3.91737   1
  Pt  27.70000  11.08000  -3.91737   1
  Pt   2.77000  13.85000  -3.91737   1
  Pt   5.54000  13.85000  -3.91737   1
  Pt   8.31000  13.85000  -3.91737   1
  Pt  11.08000  13.85000  -3.91737   1
  Pt  13.85000  13.85000  -3.91737   1
  Pt  16.62000  13.85000  -3.91737   1
  Pt  19.39000  13.85000  -3.91737   1
  Pt  22.16000  13.85000  -3.91737   1
  Pt  24.93000  13.85000  -3.91737   1
  Pt  27.70000  13.85000  -3.91737   1
  Pt   2.77000  16.62000  -3.91737   1
  Pt   5.54000  16.62000  -3.91737   1
  Pt   8.31000  16.62000  -3.91737   1
  Pt  11.08000  16.62000  -3.91737   1
  Pt  13.85000  16.62000  -3.91737   1
  Pt  16.62000  16.62000  -3.91737   1
  Pt  19.39000  16.62000  -3.91737   1
  Pt  22.16000  16.62000  -3.91737   1
  Pt  24.93000  16.62000  -3.91737   1
  Pt  27.70000  16.62000  -3.91737   1
  Pt   2.77000  19.39000  -3.91737   1
  Pt   5.54000  19.39000  -3.91737   1
  Pt   8.31000  19.39000  -3.91737   1
  Pt  11.08000  19.39000  -3.91737   1
  Pt  13.85000  19.39000  -3.91737   1
  Pt  16.62000  19.39000  -3.91737   1
  Pt  19.39000  19.39000  -3.91737   1
  Pt  22.16000  19.39000  -3.91737   1
  Pt  24.93000  19.39000  -3.91737   1
  Pt  27.70000  19.39000  -3.91737   1
  Pt   2.77000  22.16000  -3.91737   1
  Pt   5.54000  22.16000  -3.91737   1
  Pt   8.31000  22.16000  -3.91737   1
  Pt  11.08000  22.16000  -3.91737   1
  Pt  13.85000  22.16000  -3.91737   1
  Pt  16.62000  22.16000  -3.91737   1
  Pt  19.39000  22.16000  -3.91737   1
  Pt  22.16000  22.16000  -3.91737   1
  Pt  24.93000  22.16000  -3.91737   1
  Pt  27.70000  22.16000  -3.91737   1
  Pt   5.54000  24.93000  -3.91737   1
  Pt   8.31000  24.93000  -3.91737   1
  Pt  11.08000  24.93000  -3.91737   1
  Pt  13.85000  24.93000  -3.91737   1
  Pt  16.62000  24.93000  -3.91737   1
  Pt  19.39000  24.93000  -3.91737   1
  Pt  22.16000  24.93000  -3.91737   1
  Pt  24.93000  24.93000  -3.91737   1
  Pt   8.31000  27.70000  -3.91737   1
  Pt  11.08000  27.70000  -3.91737   1
  Pt  13.85000  27.70000  -3.91737   1
  Pt  16.62000  27.70000  -3.91737   1
  Pt  19.39000  27.70000  -3.91737   1
  Pt  22.16000  27.70000  -3.91737   1
  Pt   6.92500   4.15500  -5.87606   1
  Pt   9.69500   4.15500  -5.87606   1
  Pt  12.46500   4.15500  -5.87606   1
  Pt  15.23500   4.15500  -5.87606   1
  Pt  18.00500   4.15500  -5.87606   1
  Pt  20.77500   4.15500  -5.87606   1
  Pt  23.54500   4.15500  -5.87606   1
  Pt   4.15500   6.92500  -5.87606   1
  Pt   6.92500   6.92500  -5.87606   1
  Pt   9.69500   6.92500  -5.87606   1
  Pt  12.46500   6.92500  -5.87606   1
  Pt  15.23500   6.92500  -5.87606   1
  Pt  18.00500   6.92500  -5.87606   1
  Pt  20.77500   6.92500  -5.87606   1
  Pt  23.54500   6.92500  -5.87606   1
  Pt  26.31500   6.92500  -5.87606   1
  Pt   4.15500   9.69500  -5.87606   1
  Pt   6.92500   9.69500  -5.87606   1
  Pt   9.69500   9.69500  -5.87606   1
  Pt  12.46500   9.69500  -5.87606   1
  Pt  15.23500   9.69500  -5.87606   1
  Pt  18.00500   9.69500  -5.87606   1
  Pt  20.77500   9.69500  -5.87606   1
  Pt  23.54500   9.69500  -5.87606   1
  Pt  26.31500   9.69500  -5.87606   1
  Pt   4.15500  12.46500  -5.87606   1
  Pt   6.92500  12.46500  -5.87606   1
  Pt   9.69500  12.46500  -5.87606   1
  Pt  12.46500  12.46500  -5.87606   1
  Pt  15.23500  12.46500  -5.87606   1
  Pt  18.00500  12.46500  -5.87606   1
  Pt  20.77500  12.46500  -5.87606   1
  Pt  23.54500  12.46500  -5.87606   1
  Pt  26.31500  12.46500  -5.87606   1
  Pt   4.15500  15.23500  -5.87606   1
  Pt   6.92500  15.23500  -5.87606   1
  Pt   9.69500  15.23500  -5.87606   1
  Pt  12.46500  15.23500  -5.87606   1
  Pt  15.23500  15.23500  -5.87606   1
  Pt  18.00500  15.23500  -5.87606   1
  Pt  20.77500  15.23500  -5.87606   1
  Pt  23.54500  15.23500  -5.87606   1
  Pt  26.31500  15.23500  -5.87606   1
  Pt   4.15500  18.00500  -5.87606   1
  Pt   6.92500  18.00500  -5.87606   1
  Pt   9.69500  18.00500  -5.87606   1
  Pt  12.46500  18.00500  -5.87606   1
  Pt  15.23500  18.00500  -5.87606   1
  Pt  18.00500  18.00500  -5.87606   1
  Pt  20.77500  18.00500  -5.87606   1
  Pt  23.54500  18.00500  -5.87606   1
  Pt  26.31500  18.00500  -5.87606   1
  Pt   4.15500  20.77500  -5.87606   1
  Pt   6.92500  20.77500  -5.87606   1
  Pt   9.69500  20.77500  -5.87606   1
  Pt  12.46500  20.77500  -5.87606   1
  Pt  15.23500  20.77500  -5.87606   1
  Pt  18.00500  20.77500  -5.87606   1
  Pt  20.77500  20.77500  -5.87606   1
  Pt  23.54500  20.77500  -5.87606   1
  Pt  26.31500  20.77500  -5.87606   1
  Pt   4.15500  23.54500  -5.87606   1
  Pt   6.92500  23.54500  -5.87606   1
  Pt   9.69500  23.54500  -5.87606   1
  Pt  12.46500  23.54500  -5.87606   1
  Pt  15.23500  23.54500  -5.87606   1
  Pt  18.00500  23.54500  -5.87606   1
  Pt  20.77500  23.54500  -5.87606   1
  Pt  23.54500  23.54500  -5.87606   1
  Pt  26.31500  23.54500  -5.87606   1
  Pt   6.92500  26.31500  -5.87606   1
  Pt   9.69500  26.31500  -5.87606   1
  Pt  12.46500  26.31500  -5.87606   1
  Pt  15.23500  26.31500  -5.87606   1
  Pt  18.00500  26.31500  -5.87606   1
  Pt  20.77500  26.31500  -5.87606   1
  Pt  23.54500  26.31500  -5.87606   1
  Pt   5.54000   5.54000  -7.83474   1
  Pt   8.31000   5.54000  -7.83474   1
  Pt  11.08000   5.54000  -7.83474   1
  Pt  13.85000   5.54000  -7.83474   1
  Pt  16.62000   5.54000  -7.83474   1
  Pt  19.39000   5.54000  -7.83474   1
  Pt  22.16000   5.54000  -7.83474   1
  Pt  24.93000   5.54000  -7.83474   1
  Pt   5.54000   8.31000  -7.83474   1
  Pt   8.31000   8.31000  -7.83474   1
  Pt  11.08000   8.31000  -7.83474   1
  Pt  13.85000   8.31000  -7.83474   1
  Pt  16.62000   8.31000  -7.83474   1
  Pt  19.39000   8.31000  -7.83474   1
  Pt  22.16000   8.31000  -7.83474   1
  Pt  24.93000   8.31000  -7.83474   1
  Pt   5.54000  11.08000  -7.83474   1
  Pt   8.31000  11.08000  -7.83474   1
  Pt  11.08000  11.08000  -7.83474   1
  Pt  13.85000  11.08000  -7.83474   1
  Pt  16.62000  11.08000  -7.83474   1
  Pt  19.39000  11.08000  -7.83474   1
  Pt  22.16000  11.08000  -7.83474   1
  Pt  24.93000  11.08000  -7.83474   1
  Pt   5.54000  13.85000  -7.83474   1
  Pt   8.31000  13.85000  -7.83474   1
  Pt  11.08000  13.85000  -7.83474   1
  Pt  13.85000  13.85000  -7.83474   1
  Pt  16.62000  13.85000  -7.83474   1
  Pt  19.39000  13.85000  -7.83474   1
  Pt  22.16000  13.85000  -7.83474   1
  Pt  24.93000  13.85000  -7.83474   1
  Pt   5.54000  16.62000  -7.83474   1
  Pt   8.31000  16.62000  -7.83474   1
  Pt  11.08000  16.62000  -7.83474   1
  Pt  13.85000  16.62000  -7.83474   1
  Pt  16.62000  16.62000  -7.83474   1
  Pt  19.39000  16.62000  -7.83474   1
  Pt  22.16000  16.62000  -7.83474   1
  Pt  24.93000  16.62000  -7.83474   1
  Pt   5.54000  19.39000  -7.83474   1
  Pt   8.31000  19.39000  -7.83474   1
  Pt  11.08000  19.39000  -7.83474   1
  Pt  13.85000  19.39000  -7.83474   1
  Pt  16.62000  19.39000  -7.83474   1
  Pt  19.39000  19.39000  -7.83474   1
  Pt  22.16000  19.39000  -7.83474   1
  Pt  24.93000  19.39000  -7.83474   1
  Pt   5.54000  22.16000  -7.83474   1
  Pt   8.31000  22.16000  -7.83474   1
  Pt  11.08000  22.16000  -7.83474   1
  Pt  13.85000  22.16000  -7.83474   1
  Pt  16.62000  22.16000  -7.83474   1
  Pt  19.39000  22.16000  -7.83474   1
  Pt  22.16000  22.16000  -7.83474   1
  Pt  24.93000  22.16000  -7.83474   1
  Pt   5.54000  24.93000  -7.83474   1
  Pt   8.31000  24.93000  -7.83474   1
  Pt  11.08000  24.93000  -7.83474   1
  Pt  13.85000  24.93000  -7.83474   1
  Pt  16.62000  24.93000  -7.83474   1
  Pt  19.39000  24.93000  -7.83474   1
  Pt  22.16000  24.93000  -7.83474   1
  Pt  24.93000  24.93000  -7.83474   1
  Pt   6.92500   6.92500  -9.79343   1
  Pt   9.69500   6.92500  -9.79343   1
  Pt  12.46500   6.92500  -9.79343   1
  Pt  15.23500   6.92500  -9.79343   1
  Pt  18.00500   6.92500  -9.79343   1
  Pt  20.77500   6.92500  -9.79343   1
  Pt  23.54500   6.92500  -9.79343   1
  Pt   6.92500   9.69500  -9.79343   1
  Pt   9.69500   9.69500  -9.79343   1
  Pt  12.46500   9.69500  -9.79343   1
  Pt  15.23500   9.69500  -9.79343   1
  Pt  18.00500   9.69500  -9.79343   1
  Pt  20.77500   9.69500  -9.79343   1
  Pt  23.54500   9.69500  -9.79343   1
  Pt   6.92500  12.46500  -9.79343   1
  Pt   9.69500  12.46500  -9.79343   1
  Pt  12.46500  12.46500  -9.79343   1
  Pt  15.23500  12.46500  -9.79343   1
  Pt  18.00500  12.46500  -9.79343   1
  Pt  20.77500  12.46500  -9.79343   1
  Pt  23.54500  12.46500  -9.79343   1
  Pt   6.92500  15.23500  -9.79343   1
  Pt   9.69500  15.23500  -9.79343   1
  Pt  12.46500  15.23500  -9.79343   1
  Pt  15.23500  15.23500  -9.79343   1
  Pt  18.00500  15.23500  -9.79343   1
  Pt  20.77500  15.23500  -9.79343   1
  Pt  23.54500  15.23500  -9.79343   1
  Pt   6.92500  18.00500  -9.79343   1
  Pt   9.69500  18.00500  -9.79343   1
  Pt  12.46500  18.00500  -9.79343   1
  Pt  15.23500  18.00500  -9.79343   1
  Pt  18.00500  18.00500  -9.79343   1
  Pt  20.77500  18.00500  -9.79343   1
  Pt  23.54500  18.00500  -9.79343   1
  Pt   6.92500  20.77500  -9.79343   1
  Pt   9.69500  20.77500  -9.79343   1
  Pt  12.46500  20.77500  -9.79343   1
  Pt  15.23500  20.77500  -9.79343   1
  Pt  18.00500  20.77500  -9.79343   1
  Pt  20.77500  20.77500  -9.79343   1
  Pt  23.54500  20.77500  -9.79343   1
  Pt   6.92500  23.54500  -9.79343   1
  Pt   9.69500  23.54500  -9.79343   1
  Pt  12.46500  23.54500  -9.79343   1
  Pt  15.23500  23.54500  -9.79343   1
  Pt  18.00500  23.54500  -9.79343   1
  Pt  20.77500  23.54500  -9.79343   1
  Pt  23.54500  23.54500  -9.79343   1
  Pt   8.31000   8.31000 -11.75211   1
  Pt  11.08000   8.31000 -11.75211   1
  Pt  13.85000   8.31000 -11.75211   1
  Pt  16.62000   8.31000 -11.75211   1
  Pt  19.39000   8.31000 -11.75211   1
  Pt  22.16000   8.31000 -11.75211   1
  Pt   8.31000  11.08000 -11.75211   1
  Pt  11.08000  11.08000 -11.75211   1
  Pt  13.85000  11.08000 -11.75211   1
  Pt  16.62000  11.08000 -11.75211   1
  Pt  19.39000  11.08000 -11.75211   1
  Pt  22.16000  11.08000 -11.75211   1
  Pt   8.31000  13.85000 -11.75211   1
  Pt  11.08000  13.85000 -11.75211   1
  Pt  13.85000  13.85000 -11.75211   1
  Pt  16.62000  13.85000 -11.75211   1
  Pt  19.39000  13.85000 -11.75211   1
  Pt  22.16000  13.85000 -11.75211   1
  Pt   8.31000  16.62000 -11.75211   1
  Pt  11.08000  16.62000 -11.75211   1
  Pt  13.85000  16.62000 -11.75211   1
  Pt  16.62000  16.62000 -11.75211   1
  Pt  19.39000  16.62000 -11.75211   1
  Pt  22.16000  16.62000 -11.75211   1
  Pt   8.31000  19.39000 -11.75211   1
  Pt  11.08000  19.39000 -11.75211   1
  Pt  13.85000  19.39000 -11.75211   1
  Pt  16.62000  19.39000 -11.75211   1
  Pt  19.39000  19.39000 -11.75211   1
  Pt  22.16000  19.39000 -11.75211   1
  Pt   8.31000  22.16000 -11.75211   1
  Pt  11.08000  22.16000 -11.75211   1
  Pt  13.85000  22.16000 -11.75211   1
  Pt  16.62000  22.16000 -11.75211   1
  Pt  19.39000  22.16000 -11.75211   1
  Pt  22.16000  22.16000 -11.75211   1
  Pt   9.69500   9.69500 -13.71080   1
  Pt  12.46500   9.69500 -13.71080   1
  Pt  15.23500   9.69500 -13.71080   1
  Pt  18.00500   9.69500 -13.71080   1
  Pt  20.77500   9.69500 -13.71080   1
  Pt   9.69500  12.46500 -13.71080   1
  Pt  12.46500  12.46500 -13.71080   1
  Pt  15.23500  12.46500 -13.71080   1
  Pt  18.00500  12.46500 -13.71080   1
  Pt  20.77500  12.46500 -13.71080   1
  Pt   9.69500  15.23500 -13.71080   1
  Pt  12.46500  15.23500 -13.71080   1
  Pt  15.23500  15.23500 -13.71080   1
  Pt  18.00500  15.23500 -13.71080   1
  Pt  20.77500  15.23500 -13.71080   1
  Pt   9.69500  18.00500 -13.71080   1
  Pt  12.46500  18.00500 -13.71080   1
  Pt  15.23500  18.00500 -13.71080   1
  Pt  18.00500  18.00500 -13.71080   1
  Pt  20.77500  18.00500 -13.71080   1
  Pt   9.69500  20.77500 -13.71080   1
  Pt  12.46500  20.77500 -13.71080   1
  Pt  15.23500  20.77500 -13.71080   1
  Pt  18.00500  20.77500 -13.71080   1
  Pt  20.77500  20.77500 -13.71080   1
