         923
 icosaedre
  Pt   0.00000   0.00000   0.00000    12
  Pt   2.35630   1.45628   0.00000    12
  Pt   2.35630  -1.45628   0.00000    12
  Pt  -2.35630   1.45628   0.00000    12
  Pt  -2.35630  -1.45628   0.00000    12
  Pt   1.45628   0.00000   2.35630    12
  Pt   1.45628   0.00000  -2.35630    12
  Pt  -1.45628   0.00000   2.35630    12
  Pt  -1.45628   0.00000  -2.35630    12
  Pt   0.00000   2.35630   1.45628    12
  Pt   0.00000   2.35630  -1.45628    12
  Pt   0.00000  -2.35630   1.45628    12
  Pt   0.00000  -2.35630  -1.45628    12
  Pt   4.71261   2.91255   0.00000    12
  Pt   4.71261  -2.91255   0.00000    12
  Pt  -4.71261   2.91255   0.00000    12
  Pt  -4.71261  -2.91255   0.00000    12
  Pt   2.91255   0.00000   4.71261    12
  Pt   2.91255   0.00000  -4.71261    12
  Pt  -2.91255   0.00000   4.71261    12
  Pt  -2.91255   0.00000  -4.71261    12
  Pt   0.00000   4.71261   2.91255    12
  Pt   0.00000   4.71261  -2.91255    12
  Pt   0.00000  -4.71261   2.91255    12
  Pt   0.00000  -4.71261  -2.91255    12
  Pt   4.71261   0.00000   0.00000    12
  Pt   3.81258   1.45628   2.35630    12
  Pt   3.81258  -1.45628   2.35630    12
  Pt   3.81258   1.45628  -2.35630    12
  Pt   3.81258  -1.45628  -2.35630    12
  Pt   2.35630   3.81258   1.45628    12
  Pt   1.45628   2.35630   3.81258    12
  Pt   2.35630   3.81258  -1.45628    12
  Pt   1.45628   2.35630  -3.81258    12
  Pt   0.00000   4.71261   0.00000    12
  Pt   2.35630  -3.81258   1.45628    12
  Pt   1.45628  -2.35630   3.81258    12
  Pt   2.35630  -3.81258  -1.45628    12
  Pt   1.45628  -2.35630  -3.81258    12
  Pt   0.00000  -4.71261   0.00000    12
  Pt  -4.71261   0.00000   0.00000    12
  Pt  -3.81258   1.45628   2.35630    12
  Pt  -3.81258  -1.45628   2.35630    12
  Pt  -3.81258   1.45628  -2.35630    12
  Pt  -3.81258  -1.45628  -2.35630    12
  Pt  -2.35630   3.81258   1.45628    12
  Pt  -1.45628   2.35630   3.81258    12
  Pt  -2.35630   3.81258  -1.45628    12
  Pt  -1.45628   2.35630  -3.81258    12
  Pt  -2.35630  -3.81258   1.45628    12
  Pt  -1.45628  -2.35630   3.81258    12
  Pt  -2.35630  -3.81258  -1.45628    12
  Pt  -1.45628  -2.35630  -3.81258    12
  Pt   0.00000   0.00000   4.71261    12
  Pt   0.00000   0.00000  -4.71261    12
  Pt   7.06891   4.36883   0.00000    12
  Pt   7.06891  -4.36883   0.00000    12
  Pt  -7.06891   4.36883   0.00000    12
  Pt  -7.06891  -4.36883   0.00000    12
  Pt   4.36883   0.00000   7.06891    12
  Pt   4.36883   0.00000  -7.06891    12
  Pt  -4.36883   0.00000   7.06891    12
  Pt  -4.36883   0.00000  -7.06891    12
  Pt   0.00000   7.06891   4.36883    12
  Pt   0.00000   7.06891  -4.36883    12
  Pt   0.00000  -7.06891   4.36883    12
  Pt   0.00000  -7.06891  -4.36883    12
  Pt   7.06891   1.45628   0.00000    12
  Pt   7.06891  -1.45628   0.00000    12
  Pt   6.16888   2.91255   2.35630    12
  Pt   5.26885   1.45628   4.71261    12
  Pt   6.16888  -2.91255   2.35630    12
  Pt   5.26885  -1.45628   4.71261    12
  Pt   6.16888   0.00000   2.35630    12
  Pt   6.16888   2.91255  -2.35630    12
  Pt   5.26885   1.45628  -4.71261    12
  Pt   6.16888  -2.91255  -2.35630    12
  Pt   5.26885  -1.45628  -4.71261    12
  Pt   6.16888   0.00000  -2.35630    12
  Pt   4.71261   5.26885   1.45628    12
  Pt   2.35630   6.16888   2.91255    12
  Pt   2.91255   2.35630   6.16888    12
  Pt   1.45628   4.71261   5.26885    12
  Pt   3.81258   3.81258   3.81258    12
  Pt   4.71261   5.26885  -1.45628    12
  Pt   2.35630   6.16888  -2.91255    12
  Pt   2.91255   2.35630  -6.16888    12
  Pt   1.45628   4.71261  -5.26885    12
  Pt   3.81258   3.81258  -3.81258    12
  Pt   0.00000   7.06891   1.45628    12
  Pt   0.00000   7.06891  -1.45628    12
  Pt   2.35630   6.16888   0.00000    12
  Pt   4.71261  -5.26885   1.45628    12
  Pt   2.35630  -6.16888   2.91255    12
  Pt   2.91255  -2.35630   6.16888    12
  Pt   1.45628  -4.71261   5.26885    12
  Pt   3.81258  -3.81258   3.81258    12
  Pt   4.71261  -5.26885  -1.45628    12
  Pt   2.35630  -6.16888  -2.91255    12
  Pt   2.91255  -2.35630  -6.16888    12
  Pt   1.45628  -4.71261  -5.26885    12
  Pt   3.81258  -3.81258  -3.81258    12
  Pt   0.00000  -7.06891   1.45628    12
  Pt   0.00000  -7.06891  -1.45628    12
  Pt   2.35630  -6.16888   0.00000    12
  Pt  -7.06891   1.45628   0.00000    12
  Pt  -7.06891  -1.45628   0.00000    12
  Pt  -6.16888   2.91255   2.35630    12
  Pt  -5.26885   1.45628   4.71261    12
  Pt  -6.16888  -2.91255   2.35630    12
  Pt  -5.26885  -1.45628   4.71261    12
  Pt  -6.16888   0.00000   2.35630    12
  Pt  -6.16888   2.91255  -2.35630    12
  Pt  -5.26885   1.45628  -4.71261    12
  Pt  -6.16888  -2.91255  -2.35630    12
  Pt  -5.26885  -1.45628  -4.71261    12
  Pt  -6.16888   0.00000  -2.35630    12
  Pt  -4.71261   5.26885   1.45628    12
  Pt  -2.35630   6.16888   2.91255    12
  Pt  -2.91255   2.35630   6.16888    12
  Pt  -1.45628   4.71261   5.26885    12
  Pt  -3.81258   3.81258   3.81258    12
  Pt  -4.71261   5.26885  -1.45628    12
  Pt  -2.35630   6.16888  -2.91255    12
  Pt  -2.91255   2.35630  -6.16888    12
  Pt  -1.45628   4.71261  -5.26885    12
  Pt  -3.81258   3.81258  -3.81258    12
  Pt  -2.35630   6.16888   0.00000    12
  Pt  -4.71261  -5.26885   1.45628    12
  Pt  -2.35630  -6.16888   2.91255    12
  Pt  -2.91255  -2.35630   6.16888    12
  Pt  -1.45628  -4.71261   5.26885    12
  Pt  -3.81258  -3.81258   3.81258    12
  Pt  -4.71261  -5.26885  -1.45628    12
  Pt  -2.35630  -6.16888  -2.91255    12
  Pt  -2.91255  -2.35630  -6.16888    12
  Pt  -1.45628  -4.71261  -5.26885    12
  Pt  -3.81258  -3.81258  -3.81258    12
  Pt  -2.35630  -6.16888   0.00000    12
  Pt   1.45628   0.00000   7.06891    12
  Pt  -1.45628   0.00000   7.06891    12
  Pt   0.00000   2.35630   6.16888    12
  Pt   0.00000  -2.35630   6.16888    12
  Pt   1.45628   0.00000  -7.06891    12
  Pt  -1.45628   0.00000  -7.06891    12
  Pt   0.00000   2.35630  -6.16888    12
  Pt   0.00000  -2.35630  -6.16888    12
  Pt   9.42521   5.82510   0.00000    12
  Pt   9.42521  -5.82510   0.00000    12
  Pt  -9.42521   5.82510   0.00000    12
  Pt  -9.42521  -5.82510   0.00000    12
  Pt   5.82510   0.00000   9.42521    12
  Pt   5.82510   0.00000  -9.42521    12
  Pt  -5.82510   0.00000   9.42521    12
  Pt  -5.82510   0.00000  -9.42521    12
  Pt   0.00000   9.42521   5.82510    12
  Pt   0.00000   9.42521  -5.82510    12
  Pt   0.00000  -9.42521   5.82510    12
  Pt   0.00000  -9.42521  -5.82510    12
  Pt   9.42521   2.91255   0.00000    12
  Pt   9.42521   0.00000   0.00000    12
  Pt   9.42521  -2.91255   0.00000    12
  Pt   8.52518   4.36883   2.35630    12
  Pt   7.62516   2.91255   4.71261    12
  Pt   6.72513   1.45628   7.06891    12
  Pt   8.52518  -4.36883   2.35630    12
  Pt   7.62516  -2.91255   4.71261    12
  Pt   6.72513  -1.45628   7.06891    12
  Pt   8.52518   1.45628   2.35630    12
  Pt   8.52518  -1.45628   2.35630    12
  Pt   7.62516  -0.00000   4.71261    12
  Pt   8.52518   4.36883  -2.35630    12
  Pt   7.62516   2.91255  -4.71261    12
  Pt   6.72513   1.45628  -7.06891    12
  Pt   8.52518  -4.36883  -2.35630    12
  Pt   7.62516  -2.91255  -4.71261    12
  Pt   6.72513  -1.45628  -7.06891    12
  Pt   8.52518   1.45628  -2.35630    12
  Pt   8.52518  -1.45628  -2.35630    12
  Pt   7.62516  -0.00000  -4.71261    12
  Pt   7.06891   6.72513   1.45628    12
  Pt   4.71261   7.62516   2.91255    12
  Pt   2.35630   8.52518   4.36883    12
  Pt   4.36883   2.35630   8.52518    12
  Pt   2.91255   4.71261   7.62516    12
  Pt   1.45628   7.06891   6.72513    12
  Pt   6.16888   5.26885   3.81258    12
  Pt   5.26885   3.81258   6.16888    12
  Pt   3.81258   6.16888   5.26885    12
  Pt   7.06891   6.72513  -1.45628    12
  Pt   4.71261   7.62516  -2.91255    12
  Pt   2.35630   8.52518  -4.36883    12
  Pt   4.36883   2.35630  -8.52518    12
  Pt   2.91255   4.71261  -7.62516    12
  Pt   1.45628   7.06891  -6.72513    12
  Pt   6.16888   5.26885  -3.81258    12
  Pt   5.26885   3.81258  -6.16888    12
  Pt   3.81258   6.16888  -5.26885    12
  Pt   0.00000   9.42521   2.91255    12
  Pt   0.00000   9.42521   0.00000    12
  Pt   0.00000   9.42521  -2.91255    12
  Pt   4.71261   7.62516   0.00000    12
  Pt   2.35630   8.52518   1.45628    12
  Pt   2.35630   8.52518  -1.45628    12
  Pt   7.06891  -6.72513   1.45628    12
  Pt   4.71261  -7.62516   2.91255    12
  Pt   2.35630  -8.52518   4.36883    12
  Pt   4.36883  -2.35630   8.52518    12
  Pt   2.91255  -4.71261   7.62516    12
  Pt   1.45628  -7.06891   6.72513    12
  Pt   6.16888  -5.26885   3.81258    12
  Pt   5.26885  -3.81258   6.16888    12
  Pt   3.81258  -6.16888   5.26885    12
  Pt   7.06891  -6.72513  -1.45628    12
  Pt   4.71261  -7.62516  -2.91255    12
  Pt   2.35630  -8.52518  -4.36883    12
  Pt   4.36883  -2.35630  -8.52518    12
  Pt   2.91255  -4.71261  -7.62516    12
  Pt   1.45628  -7.06891  -6.72513    12
  Pt   6.16888  -5.26885  -3.81258    12
  Pt   5.26885  -3.81258  -6.16888    12
  Pt   3.81258  -6.16888  -5.26885    12
  Pt   0.00000  -9.42521   2.91255    12
  Pt   0.00000  -9.42521   0.00000    12
  Pt   0.00000  -9.42521  -2.91255    12
  Pt   4.71261  -7.62516   0.00000    12
  Pt   2.35630  -8.52518   1.45628    12
  Pt   2.35630  -8.52518  -1.45628    12
  Pt  -9.42521   2.91255   0.00000    12
  Pt  -9.42521   0.00000   0.00000    12
  Pt  -9.42521  -2.91255   0.00000    12
  Pt  -8.52518   4.36883   2.35630    12
  Pt  -7.62516   2.91255   4.71261    12
  Pt  -6.72513   1.45628   7.06891    12
  Pt  -8.52518  -4.36883   2.35630    12
  Pt  -7.62516  -2.91255   4.71261    12
  Pt  -6.72513  -1.45628   7.06891    12
  Pt  -8.52518   1.45628   2.35630    12
  Pt  -8.52518  -1.45628   2.35630    12
  Pt  -7.62516  -0.00000   4.71261    12
  Pt  -8.52518   4.36883  -2.35630    12
  Pt  -7.62516   2.91255  -4.71261    12
  Pt  -6.72513   1.45628  -7.06891    12
  Pt  -8.52518  -4.36883  -2.35630    12
  Pt  -7.62516  -2.91255  -4.71261    12
  Pt  -6.72513  -1.45628  -7.06891    12
  Pt  -8.52518   1.45628  -2.35630    12
  Pt  -8.52518  -1.45628  -2.35630    12
  Pt  -7.62516  -0.00000  -4.71261    12
  Pt  -7.06891   6.72513   1.45628    12
  Pt  -4.71261   7.62516   2.91255    12
  Pt  -2.35630   8.52518   4.36883    12
  Pt  -4.36883   2.35630   8.52518    12
  Pt  -2.91255   4.71261   7.62516    12
  Pt  -1.45628   7.06891   6.72513    12
  Pt  -6.16888   5.26885   3.81258    12
  Pt  -5.26885   3.81258   6.16888    12
  Pt  -3.81258   6.16888   5.26885    12
  Pt  -7.06891   6.72513  -1.45628    12
  Pt  -4.71261   7.62516  -2.91255    12
  Pt  -2.35630   8.52518  -4.36883    12
  Pt  -4.36883   2.35630  -8.52518    12
  Pt  -2.91255   4.71261  -7.62516    12
  Pt  -1.45628   7.06891  -6.72513    12
  Pt  -6.16888   5.26885  -3.81258    12
  Pt  -5.26885   3.81258  -6.16888    12
  Pt  -3.81258   6.16888  -5.26885    12
  Pt  -4.71261   7.62516   0.00000    12
  Pt  -2.35630   8.52518   1.45628    12
  Pt  -2.35630   8.52518  -1.45628    12
  Pt  -7.06891  -6.72513   1.45628    12
  Pt  -4.71261  -7.62516   2.91255    12
  Pt  -2.35630  -8.52518   4.36883    12
  Pt  -4.36883  -2.35630   8.52518    12
  Pt  -2.91255  -4.71261   7.62516    12
  Pt  -1.45628  -7.06891   6.72513    12
  Pt  -6.16888  -5.26885   3.81258    12
  Pt  -5.26885  -3.81258   6.16888    12
  Pt  -3.81258  -6.16888   5.26885    12
  Pt  -7.06891  -6.72513  -1.45628    12
  Pt  -4.71261  -7.62516  -2.91255    12
  Pt  -2.35630  -8.52518  -4.36883    12
  Pt  -4.36883  -2.35630  -8.52518    12
  Pt  -2.91255  -4.71261  -7.62516    12
  Pt  -1.45628  -7.06891  -6.72513    12
  Pt  -6.16888  -5.26885  -3.81258    12
  Pt  -5.26885  -3.81258  -6.16888    12
  Pt  -3.81258  -6.16888  -5.26885    12
  Pt  -4.71261  -7.62516   0.00000    12
  Pt  -2.35630  -8.52518   1.45628    12
  Pt  -2.35630  -8.52518  -1.45628    12
  Pt   2.91255   0.00000   9.42521    12
  Pt   0.00000   0.00000   9.42521    12
  Pt  -2.91255   0.00000   9.42521    12
  Pt   1.45628   2.35630   8.52518    12
  Pt  -1.45628   2.35630   8.52518    12
  Pt  -0.00000   4.71261   7.62516    12
  Pt   1.45628  -2.35630   8.52518    12
  Pt  -1.45628  -2.35630   8.52518    12
  Pt  -0.00000  -4.71261   7.62516    12
  Pt   2.91255   0.00000  -9.42521    12
  Pt   0.00000   0.00000  -9.42521    12
  Pt  -2.91255   0.00000  -9.42521    12
  Pt   1.45628   2.35630  -8.52518    12
  Pt  -1.45628   2.35630  -8.52518    12
  Pt  -0.00000   4.71261  -7.62516    12
  Pt   1.45628  -2.35630  -8.52518    12
  Pt  -1.45628  -2.35630  -8.52518    12
  Pt  -0.00000  -4.71261  -7.62516    12
  Pt  11.78151   7.28138   0.00000    12
  Pt  11.78151  -7.28138   0.00000    12
  Pt -11.78151   7.28138   0.00000    12
  Pt -11.78151  -7.28138   0.00000    12
  Pt   7.28138   0.00000  11.78151    12
  Pt   7.28138   0.00000 -11.78151    12
  Pt  -7.28138   0.00000  11.78151    12
  Pt  -7.28138   0.00000 -11.78151    12
  Pt   0.00000  11.78151   7.28138    12
  Pt   0.00000  11.78151  -7.28138    12
  Pt   0.00000 -11.78151   7.28138    12
  Pt   0.00000 -11.78151  -7.28138    12
  Pt  11.78151   4.36883   0.00000    12
  Pt  11.78151   1.45628   0.00000    12
  Pt  11.78151  -1.45628   0.00000    12
  Pt  11.78151  -4.36883   0.00000    12
  Pt  10.88149   5.82510   2.35630    12
  Pt   9.98146   4.36883   4.71261    12
  Pt   9.08143   2.91255   7.06891    12
  Pt   8.18140   1.45628   9.42521    12
  Pt  10.88149  -5.82510   2.35630    12
  Pt   9.98146  -4.36883   4.71261    12
  Pt   9.08143  -2.91255   7.06891    12
  Pt   8.18140  -1.45628   9.42521    12
  Pt  10.88149   2.91255   2.35630    12
  Pt  10.88149   0.00000   2.35630    12
  Pt   9.98146   1.45628   4.71261    12
  Pt  10.88149  -2.91255   2.35630    12
  Pt   9.98146  -1.45628   4.71261    12
  Pt   9.08143   0.00000   7.06891    12
  Pt  10.88149   5.82510  -2.35630    12
  Pt   9.98146   4.36883  -4.71261    12
  Pt   9.08143   2.91255  -7.06891    12
  Pt   8.18140   1.45628  -9.42521    12
  Pt  10.88149  -5.82510  -2.35630    12
  Pt   9.98146  -4.36883  -4.71261    12
  Pt   9.08143  -2.91255  -7.06891    12
  Pt   8.18140  -1.45628  -9.42521    12
  Pt  10.88149   2.91255  -2.35630    12
  Pt  10.88149   0.00000  -2.35630    12
  Pt   9.98146   1.45628  -4.71261    12
  Pt  10.88149  -2.91255  -2.35630    12
  Pt   9.98146  -1.45628  -4.71261    12
  Pt   9.08143   0.00000  -7.06891    12
  Pt   9.42521   8.18140   1.45628    12
  Pt   7.06891   9.08143   2.91255    12
  Pt   4.71261   9.98146   4.36883    12
  Pt   2.35630  10.88149   5.82510    12
  Pt   5.82510   2.35630  10.88149    12
  Pt   4.36883   4.71261   9.98146    12
  Pt   2.91255   7.06891   9.08143    12
  Pt   1.45628   9.42521   8.18140    12
  Pt   8.52518   6.72513   3.81258    12
  Pt   7.62516   5.26885   6.16888    12
  Pt   6.16888   7.62516   5.26885    12
  Pt   6.72513   3.81258   8.52518    12
  Pt   5.26885   6.16888   7.62516    12
  Pt   3.81258   8.52518   6.72513    12
  Pt   9.42521   8.18140  -1.45628    12
  Pt   7.06891   9.08143  -2.91255    12
  Pt   4.71261   9.98146  -4.36883    12
  Pt   2.35630  10.88149  -5.82510    12
  Pt   5.82510   2.35630 -10.88149    12
  Pt   4.36883   4.71261  -9.98146    12
  Pt   2.91255   7.06891  -9.08143    12
  Pt   1.45628   9.42521  -8.18140    12
  Pt   8.52518   6.72513  -3.81258    12
  Pt   7.62516   5.26885  -6.16888    12
  Pt   6.16888   7.62516  -5.26885    12
  Pt   6.72513   3.81258  -8.52518    12
  Pt   5.26885   6.16888  -7.62516    12
  Pt   3.81258   8.52518  -6.72513    12
  Pt   0.00000  11.78151   4.36883    12
  Pt   0.00000  11.78151   1.45628    12
  Pt   0.00000  11.78151  -1.45628    12
  Pt   0.00000  11.78151  -4.36883    12
  Pt   7.06891   9.08143   0.00000    12
  Pt   4.71261   9.98146   1.45628    12
  Pt   4.71261   9.98146  -1.45628    12
  Pt   2.35630  10.88149   2.91255    12
  Pt   2.35630  10.88149   0.00000    12
  Pt   2.35630  10.88149  -2.91255    12
  Pt   9.42521  -8.18140   1.45628    12
  Pt   7.06891  -9.08143   2.91255    12
  Pt   4.71261  -9.98146   4.36883    12
  Pt   2.35630 -10.88149   5.82510    12
  Pt   5.82510  -2.35630  10.88149    12
  Pt   4.36883  -4.71261   9.98146    12
  Pt   2.91255  -7.06891   9.08143    12
  Pt   1.45628  -9.42521   8.18140    12
  Pt   8.52518  -6.72513   3.81258    12
  Pt   7.62516  -5.26885   6.16888    12
  Pt   6.16888  -7.62516   5.26885    12
  Pt   6.72513  -3.81258   8.52518    12
  Pt   5.26885  -6.16888   7.62516    12
  Pt   3.81258  -8.52518   6.72513    12
  Pt   9.42521  -8.18140  -1.45628    12
  Pt   7.06891  -9.08143  -2.91255    12
  Pt   4.71261  -9.98146  -4.36883    12
  Pt   2.35630 -10.88149  -5.82510    12
  Pt   5.82510  -2.35630 -10.88149    12
  Pt   4.36883  -4.71261  -9.98146    12
  Pt   2.91255  -7.06891  -9.08143    12
  Pt   1.45628  -9.42521  -8.18140    12
  Pt   8.52518  -6.72513  -3.81258    12
  Pt   7.62516  -5.26885  -6.16888    12
  Pt   6.16888  -7.62516  -5.26885    12
  Pt   6.72513  -3.81258  -8.52518    12
  Pt   5.26885  -6.16888  -7.62516    12
  Pt   3.81258  -8.52518  -6.72513    12
  Pt   0.00000 -11.78151   4.36883    12
  Pt   0.00000 -11.78151   1.45628    12
  Pt   0.00000 -11.78151  -1.45628    12
  Pt   0.00000 -11.78151  -4.36883    12
  Pt   7.06891  -9.08143   0.00000    12
  Pt   4.71261  -9.98146   1.45628    12
  Pt   4.71261  -9.98146  -1.45628    12
  Pt   2.35630 -10.88149   2.91255    12
  Pt   2.35630 -10.88149   0.00000    12
  Pt   2.35630 -10.88149  -2.91255    12
  Pt -11.78151   4.36883   0.00000    12
  Pt -11.78151   1.45628   0.00000    12
  Pt -11.78151  -1.45628   0.00000    12
  Pt -11.78151  -4.36883   0.00000    12
  Pt -10.88149   5.82510   2.35630    12
  Pt  -9.98146   4.36883   4.71261    12
  Pt  -9.08143   2.91255   7.06891    12
  Pt  -8.18140   1.45628   9.42521    12
  Pt -10.88149  -5.82510   2.35630    12
  Pt  -9.98146  -4.36883   4.71261    12
  Pt  -9.08143  -2.91255   7.06891    12
  Pt  -8.18140  -1.45628   9.42521    12
  Pt -10.88149   2.91255   2.35630    12
  Pt -10.88149   0.00000   2.35630    12
  Pt  -9.98146   1.45628   4.71261    12
  Pt -10.88149  -2.91255   2.35630    12
  Pt  -9.98146  -1.45628   4.71261    12
  Pt  -9.08143   0.00000   7.06891    12
  Pt -10.88149   5.82510  -2.35630    12
  Pt  -9.98146   4.36883  -4.71261    12
  Pt  -9.08143   2.91255  -7.06891    12
  Pt  -8.18140   1.45628  -9.42521    12
  Pt -10.88149  -5.82510  -2.35630    12
  Pt  -9.98146  -4.36883  -4.71261    12
  Pt  -9.08143  -2.91255  -7.06891    12
  Pt  -8.18140  -1.45628  -9.42521    12
  Pt -10.88149   2.91255  -2.35630    12
  Pt -10.88149   0.00000  -2.35630    12
  Pt  -9.98146   1.45628  -4.71261    12
  Pt -10.88149  -2.91255  -2.35630    12
  Pt  -9.98146  -1.45628  -4.71261    12
  Pt  -9.08143   0.00000  -7.06891    12
  Pt  -9.42521   8.18140   1.45628    12
  Pt  -7.06891   9.08143   2.91255    12
  Pt  -4.71261   9.98146   4.36883    12
  Pt  -2.35630  10.88149   5.82510    12
  Pt  -5.82510   2.35630  10.88149    12
  Pt  -4.36883   4.71261   9.98146    12
  Pt  -2.91255   7.06891   9.08143    12
  Pt  -1.45628   9.42521   8.18140    12
  Pt  -8.52518   6.72513   3.81258    12
  Pt  -7.62516   5.26885   6.16888    12
  Pt  -6.16888   7.62516   5.26885    12
  Pt  -6.72513   3.81258   8.52518    12
  Pt  -5.26885   6.16888   7.62516    12
  Pt  -3.81258   8.52518   6.72513    12
  Pt  -9.42521   8.18140  -1.45628    12
  Pt  -7.06891   9.08143  -2.91255    12
  Pt  -4.71261   9.98146  -4.36883    12
  Pt  -2.35630  10.88149  -5.82510    12
  Pt  -5.82510   2.35630 -10.88149    12
  Pt  -4.36883   4.71261  -9.98146    12
  Pt  -2.91255   7.06891  -9.08143    12
  Pt  -1.45628   9.42521  -8.18140    12
  Pt  -8.52518   6.72513  -3.81258    12
  Pt  -7.62516   5.26885  -6.16888    12
  Pt  -6.16888   7.62516  -5.26885    12
  Pt  -6.72513   3.81258  -8.52518    12
  Pt  -5.26885   6.16888  -7.62516    12
  Pt  -3.81258   8.52518  -6.72513    12
  Pt  -7.06891   9.08143   0.00000    12
  Pt  -4.71261   9.98146   1.45628    12
  Pt  -4.71261   9.98146  -1.45628    12
  Pt  -2.35630  10.88149   2.91255    12
  Pt  -2.35630  10.88149   0.00000    12
  Pt  -2.35630  10.88149  -2.91255    12
  Pt  -9.42521  -8.18140   1.45628    12
  Pt  -7.06891  -9.08143   2.91255    12
  Pt  -4.71261  -9.98146   4.36883    12
  Pt  -2.35630 -10.88149   5.82510    12
  Pt  -5.82510  -2.35630  10.88149    12
  Pt  -4.36883  -4.71261   9.98146    12
  Pt  -2.91255  -7.06891   9.08143    12
  Pt  -1.45628  -9.42521   8.18140    12
  Pt  -8.52518  -6.72513   3.81258    12
  Pt  -7.62516  -5.26885   6.16888    12
  Pt  -6.16888  -7.62516   5.26885    12
  Pt  -6.72513  -3.81258   8.52518    12
  Pt  -5.26885  -6.16888   7.62516    12
  Pt  -3.81258  -8.52518   6.72513    12
  Pt  -9.42521  -8.18140  -1.45628    12
  Pt  -7.06891  -9.08143  -2.91255    12
  Pt  -4.71261  -9.98146  -4.36883    12
  Pt  -2.35630 -10.88149  -5.82510    12
  Pt  -5.82510  -2.35630 -10.88149    12
  Pt  -4.36883  -4.71261  -9.98146    12
  Pt  -2.91255  -7.06891  -9.08143    12
  Pt  -1.45628  -9.42521  -8.18140    12
  Pt  -8.52518  -6.72513  -3.81258    12
  Pt  -7.62516  -5.26885  -6.16888    12
  Pt  -6.16888  -7.62516  -5.26885    12
  Pt  -6.72513  -3.81258  -8.52518    12
  Pt  -5.26885  -6.16888  -7.62516    12
  Pt  -3.81258  -8.52518  -6.72513    12
  Pt  -7.06891  -9.08143   0.00000    12
  Pt  -4.71261  -9.98146   1.45628    12
  Pt  -4.71261  -9.98146  -1.45628    12
  Pt  -2.35630 -10.88149   2.91255    12
  Pt  -2.35630 -10.88149   0.00000    12
  Pt  -2.35630 -10.88149  -2.91255    12
  Pt   4.36883   0.00000  11.78151    12
  Pt   1.45628   0.00000  11.78151    12
  Pt  -1.45628   0.00000  11.78151    12
  Pt  -4.36883   0.00000  11.78151    12
  Pt   2.91255   2.35630  10.88149    12
  Pt   0.00000   2.35630  10.88149    12
  Pt   1.45628   4.71261   9.98146    12
  Pt  -2.91255   2.35630  10.88149    12
  Pt  -1.45628   4.71261   9.98146    12
  Pt   0.00000   7.06891   9.08143    12
  Pt   2.91255  -2.35630  10.88149    12
  Pt   0.00000  -2.35630  10.88149    12
  Pt   1.45628  -4.71261   9.98146    12
  Pt  -2.91255  -2.35630  10.88149    12
  Pt  -1.45628  -4.71261   9.98146    12
  Pt   0.00000  -7.06891   9.08143    12
  Pt   4.36883   0.00000 -11.78151    12
  Pt   1.45628   0.00000 -11.78151    12
  Pt  -1.45628   0.00000 -11.78151    12
  Pt  -4.36883   0.00000 -11.78151    12
  Pt   2.91255   2.35630 -10.88149    12
  Pt   0.00000   2.35630 -10.88149    12
  Pt   1.45628   4.71261  -9.98146    12
  Pt  -2.91255   2.35630 -10.88149    12
  Pt  -1.45628   4.71261  -9.98146    12
  Pt   0.00000   7.06891  -9.08143    12
  Pt   2.91255  -2.35630 -10.88149    12
  Pt   0.00000  -2.35630 -10.88149    12
  Pt   1.45628  -4.71261  -9.98146    12
  Pt  -2.91255  -2.35630 -10.88149    12
  Pt  -1.45628  -4.71261  -9.98146    12
  Pt   0.00000  -7.06891  -9.08143    12
  Pt  14.13782   8.73765   0.00000     6
  Pt  14.13782  -8.73765   0.00000     6
  Pt -14.13782   8.73765   0.00000     6
  Pt -14.13782  -8.73765   0.00000     6
  Pt   8.73765   0.00000  14.13782     6
  Pt   8.73765   0.00000 -14.13782     6
  Pt  -8.73765   0.00000  14.13782     6
  Pt  -8.73765   0.00000 -14.13782     6
  Pt   0.00000  14.13782   8.73765     6
  Pt   0.00000  14.13782  -8.73765     6
  Pt   0.00000 -14.13782   8.73765     6
  Pt   0.00000 -14.13782  -8.73765     6
  Pt  14.13782   5.82510   0.00000     8
  Pt  14.13782   2.91255   0.00000     8
  Pt  14.13782   0.00000   0.00000     8
  Pt  14.13782  -2.91255   0.00000     8
  Pt  14.13782  -5.82510   0.00000     8
  Pt  13.23779   7.28138   2.35630     8
  Pt  12.33776   5.82510   4.71261     8
  Pt  11.43773   4.36883   7.06891     8
  Pt  10.53771   2.91255   9.42521     8
  Pt   9.63768   1.45628  11.78151     8
  Pt  13.23779  -7.28138   2.35630     8
  Pt  12.33776  -5.82510   4.71261     8
  Pt  11.43773  -4.36883   7.06891     8
  Pt  10.53771  -2.91255   9.42521     8
  Pt   9.63768  -1.45628  11.78151     8
  Pt  13.23779   4.36883   2.35630     9
  Pt  13.23779   1.45628   2.35630     9
  Pt  12.33776   2.91255   4.71261     9
  Pt  13.23779  -1.45628   2.35630     9
  Pt  12.33776   0.00000   4.71261     9
  Pt  11.43773   1.45628   7.06891     9
  Pt  13.23779  -4.36883   2.35630     9
  Pt  12.33776  -2.91255   4.71261     9
  Pt  11.43773  -1.45628   7.06891     9
  Pt  10.53771   0.00000   9.42521     9
  Pt  13.23779   7.28138  -2.35630     8
  Pt  12.33776   5.82510  -4.71261     8
  Pt  11.43773   4.36883  -7.06891     8
  Pt  10.53771   2.91255  -9.42521     8
  Pt   9.63768   1.45628 -11.78151     8
  Pt  13.23779  -7.28138  -2.35630     8
  Pt  12.33776  -5.82510  -4.71261     8
  Pt  11.43773  -4.36883  -7.06891     8
  Pt  10.53771  -2.91255  -9.42521     8
  Pt   9.63768  -1.45628 -11.78151     8
  Pt  13.23779   4.36883  -2.35630     9
  Pt  13.23779   1.45628  -2.35630     9
  Pt  12.33776   2.91255  -4.71261     9
  Pt  13.23779  -1.45628  -2.35630     9
  Pt  12.33776   0.00000  -4.71261     9
  Pt  11.43773   1.45628  -7.06891     9
  Pt  13.23779  -4.36883  -2.35630     9
  Pt  12.33776  -2.91255  -4.71261     9
  Pt  11.43773  -1.45628  -7.06891     9
  Pt  10.53771   0.00000  -9.42521     9
  Pt  11.78151   9.63768   1.45628     8
  Pt   9.42521  10.53771   2.91255     8
  Pt   7.06891  11.43773   4.36883     8
  Pt   4.71261  12.33776   5.82510     8
  Pt   2.35630  13.23779   7.28138     8
  Pt   7.28138   2.35630  13.23779     8
  Pt   5.82510   4.71261  12.33776     8
  Pt   4.36883   7.06891  11.43773     8
  Pt   2.91255   9.42521  10.53771     8
  Pt   1.45628  11.78151   9.63768     8
  Pt  10.88149   8.18140   3.81258     9
  Pt   9.98146   6.72513   6.16888     9
  Pt   8.52518   9.08143   5.26885     9
  Pt   9.08143   5.26885   8.52518     9
  Pt   7.62516   7.62516   7.62516     9
  Pt   6.16888   9.98146   6.72513     9
  Pt   8.18140   3.81258  10.88149     9
  Pt   6.72513   6.16888   9.98146     9
  Pt   5.26885   8.52518   9.08143     9
  Pt   3.81258  10.88149   8.18140     9
  Pt  11.78151   9.63768  -1.45628     8
  Pt   9.42521  10.53771  -2.91255     8
  Pt   7.06891  11.43773  -4.36883     8
  Pt   4.71261  12.33776  -5.82510     8
  Pt   2.35630  13.23779  -7.28138     8
  Pt   7.28138   2.35630 -13.23779     8
  Pt   5.82510   4.71261 -12.33776     8
  Pt   4.36883   7.06891 -11.43773     8
  Pt   2.91255   9.42521 -10.53771     8
  Pt   1.45628  11.78151  -9.63768     8
  Pt  10.88149   8.18140  -3.81258     9
  Pt   9.98146   6.72513  -6.16888     9
  Pt   8.52518   9.08143  -5.26885     9
  Pt   9.08143   5.26885  -8.52518     9
  Pt   7.62516   7.62516  -7.62516     9
  Pt   6.16888   9.98146  -6.72513     9
  Pt   8.18140   3.81258 -10.88149     9
  Pt   6.72513   6.16888  -9.98146     9
  Pt   5.26885   8.52518  -9.08143     9
  Pt   3.81258  10.88149  -8.18140     9
  Pt   0.00000  14.13782   5.82510     8
  Pt   0.00000  14.13782   2.91255     8
  Pt   0.00000  14.13782   0.00000     8
  Pt   0.00000  14.13782  -2.91255     8
  Pt   0.00000  14.13782  -5.82510     8
  Pt   9.42521  10.53771   0.00000     9
  Pt   7.06891  11.43773   1.45628     9
  Pt   7.06891  11.43773  -1.45628     9
  Pt   4.71261  12.33776   2.91255     9
  Pt   4.71261  12.33776   0.00000     9
  Pt   4.71261  12.33776  -2.91255     9
  Pt   2.35630  13.23779   4.36883     9
  Pt   2.35630  13.23779   1.45628     9
  Pt   2.35630  13.23779  -1.45628     9
  Pt   2.35630  13.23779  -4.36883     9
  Pt  11.78151  -9.63768   1.45628     8
  Pt   9.42521 -10.53771   2.91255     8
  Pt   7.06891 -11.43773   4.36883     8
  Pt   4.71261 -12.33776   5.82510     8
  Pt   2.35630 -13.23779   7.28138     8
  Pt   7.28138  -2.35630  13.23779     8
  Pt   5.82510  -4.71261  12.33776     8
  Pt   4.36883  -7.06891  11.43773     8
  Pt   2.91255  -9.42521  10.53771     8
  Pt   1.45628 -11.78151   9.63768     8
  Pt  10.88149  -8.18140   3.81258     9
  Pt   9.98146  -6.72513   6.16888     9
  Pt   8.52518  -9.08143   5.26885     9
  Pt   9.08143  -5.26885   8.52518     9
  Pt   7.62516  -7.62516   7.62516     9
  Pt   6.16888  -9.98146   6.72513     9
  Pt   8.18140  -3.81258  10.88149     9
  Pt   6.72513  -6.16888   9.98146     9
  Pt   5.26885  -8.52518   9.08143     9
  Pt   3.81258 -10.88149   8.18140     9
  Pt  11.78151  -9.63768  -1.45628     8
  Pt   9.42521 -10.53771  -2.91255     8
  Pt   7.06891 -11.43773  -4.36883     8
  Pt   4.71261 -12.33776  -5.82510     8
  Pt   2.35630 -13.23779  -7.28138     8
  Pt   7.28138  -2.35630 -13.23779     8
  Pt   5.82510  -4.71261 -12.33776     8
  Pt   4.36883  -7.06891 -11.43773     8
  Pt   2.91255  -9.42521 -10.53771     8
  Pt   1.45628 -11.78151  -9.63768     8
  Pt  10.88149  -8.18140  -3.81258     9
  Pt   9.98146  -6.72513  -6.16888     9
  Pt   8.52518  -9.08143  -5.26885     9
  Pt   9.08143  -5.26885  -8.52518     9
  Pt   7.62516  -7.62516  -7.62516     9
  Pt   6.16888  -9.98146  -6.72513     9
  Pt   8.18140  -3.81258 -10.88149     9
  Pt   6.72513  -6.16888  -9.98146     9
  Pt   5.26885  -8.52518  -9.08143     9
  Pt   3.81258 -10.88149  -8.18140     9
  Pt   0.00000 -14.13782   5.82510     8
  Pt   0.00000 -14.13782   2.91255     8
  Pt   0.00000 -14.13782   0.00000     8
  Pt   0.00000 -14.13782  -2.91255     8
  Pt   0.00000 -14.13782  -5.82510     8
  Pt   9.42521 -10.53771   0.00000     9
  Pt   7.06891 -11.43773   1.45628     9
  Pt   7.06891 -11.43773  -1.45628     9
  Pt   4.71261 -12.33776   2.91255     9
  Pt   4.71261 -12.33776   0.00000     9
  Pt   4.71261 -12.33776  -2.91255     9
  Pt   2.35630 -13.23779   4.36883     9
  Pt   2.35630 -13.23779   1.45628     9
  Pt   2.35630 -13.23779  -1.45628     9
  Pt   2.35630 -13.23779  -4.36883     9
  Pt -14.13782   5.82510   0.00000     8
  Pt -14.13782   2.91255   0.00000     8
  Pt -14.13782   0.00000   0.00000     8
  Pt -14.13782  -2.91255   0.00000     8
  Pt -14.13782  -5.82510   0.00000     8
  Pt -13.23779   7.28138   2.35630     8
  Pt -12.33776   5.82510   4.71261     8
  Pt -11.43773   4.36883   7.06891     8
  Pt -10.53771   2.91255   9.42521     8
  Pt  -9.63768   1.45628  11.78151     8
  Pt -13.23779  -7.28138   2.35630     8
  Pt -12.33776  -5.82510   4.71261     8
  Pt -11.43773  -4.36883   7.06891     8
  Pt -10.53771  -2.91255   9.42521     8
  Pt  -9.63768  -1.45628  11.78151     8
  Pt -13.23779   4.36883   2.35630     9
  Pt -13.23779   1.45628   2.35630     9
  Pt -12.33776   2.91255   4.71261     9
  Pt -13.23779  -1.45628   2.35630     9
  Pt -12.33776   0.00000   4.71261     9
  Pt -11.43773   1.45628   7.06891     9
  Pt -13.23779  -4.36883   2.35630     9
  Pt -12.33776  -2.91255   4.71261     9
  Pt -11.43773  -1.45628   7.06891     9
  Pt -10.53771   0.00000   9.42521     9
  Pt -13.23779   7.28138  -2.35630     8
  Pt -12.33776   5.82510  -4.71261     8
  Pt -11.43773   4.36883  -7.06891     8
  Pt -10.53771   2.91255  -9.42521     8
  Pt  -9.63768   1.45628 -11.78151     8
  Pt -13.23779  -7.28138  -2.35630     8
  Pt -12.33776  -5.82510  -4.71261     8
  Pt -11.43773  -4.36883  -7.06891     8
  Pt -10.53771  -2.91255  -9.42521     8
  Pt  -9.63768  -1.45628 -11.78151     8
  Pt -13.23779   4.36883  -2.35630     9
  Pt -13.23779   1.45628  -2.35630     9
  Pt -12.33776   2.91255  -4.71261     9
  Pt -13.23779  -1.45628  -2.35630     9
  Pt -12.33776   0.00000  -4.71261     9
  Pt -11.43773   1.45628  -7.06891     9
  Pt -13.23779  -4.36883  -2.35630     9
  Pt -12.33776  -2.91255  -4.71261     9
  Pt -11.43773  -1.45628  -7.06891     9
  Pt -10.53771   0.00000  -9.42521     9
  Pt -11.78151   9.63768   1.45628     8
  Pt  -9.42521  10.53771   2.91255     8
  Pt  -7.06891  11.43773   4.36883     8
  Pt  -4.71261  12.33776   5.82510     8
  Pt  -2.35630  13.23779   7.28138     8
  Pt  -7.28138   2.35630  13.23779     8
  Pt  -5.82510   4.71261  12.33776     8
  Pt  -4.36883   7.06891  11.43773     8
  Pt  -2.91255   9.42521  10.53771     8
  Pt  -1.45628  11.78151   9.63768     8
  Pt -10.88149   8.18140   3.81258     9
  Pt  -9.98146   6.72513   6.16888     9
  Pt  -8.52518   9.08143   5.26885     9
  Pt  -9.08143   5.26885   8.52518     9
  Pt  -7.62516   7.62516   7.62516     9
  Pt  -6.16888   9.98146   6.72513     9
  Pt  -8.18140   3.81258  10.88149     9
  Pt  -6.72513   6.16888   9.98146     9
  Pt  -5.26885   8.52518   9.08143     9
  Pt  -3.81258  10.88149   8.18140     9
  Pt -11.78151   9.63768  -1.45628     8
  Pt  -9.42521  10.53771  -2.91255     8
  Pt  -7.06891  11.43773  -4.36883     8
  Pt  -4.71261  12.33776  -5.82510     8
  Pt  -2.35630  13.23779  -7.28138     8
  Pt  -7.28138   2.35630 -13.23779     8
  Pt  -5.82510   4.71261 -12.33776     8
  Pt  -4.36883   7.06891 -11.43773     8
  Pt  -2.91255   9.42521 -10.53771     8
  Pt  -1.45628  11.78151  -9.63768     8
  Pt -10.88149   8.18140  -3.81258     9
  Pt  -9.98146   6.72513  -6.16888     9
  Pt  -8.52518   9.08143  -5.26885     9
  Pt  -9.08143   5.26885  -8.52518     9
  Pt  -7.62516   7.62516  -7.62516     9
  Pt  -6.16888   9.98146  -6.72513     9
  Pt  -8.18140   3.81258 -10.88149     9
  Pt  -6.72513   6.16888  -9.98146     9
  Pt  -5.26885   8.52518  -9.08143     9
  Pt  -3.81258  10.88149  -8.18140     9
  Pt  -9.42521  10.53771   0.00000     9
  Pt  -7.06891  11.43773   1.45628     9
  Pt  -7.06891  11.43773  -1.45628     9
  Pt  -4.71261  12.33776   2.91255     9
  Pt  -4.71261  12.33776   0.00000     9
  Pt  -4.71261  12.33776  -2.91255     9
  Pt  -2.35630  13.23779   4.36883     9
  Pt  -2.35630  13.23779   1.45628     9
  Pt  -2.35630  13.23779  -1.45628     9
  Pt  -2.35630  13.23779  -4.36883     9
  Pt -11.78151  -9.63768   1.45628     8
  Pt  -9.42521 -10.53771   2.91255     8
  Pt  -7.06891 -11.43773   4.36883     8
  Pt  -4.71261 -12.33776   5.82510     8
  Pt  -2.35630 -13.23779   7.28138     8
  Pt  -7.28138  -2.35630  13.23779     8
  Pt  -5.82510  -4.71261  12.33776     8
  Pt  -4.36883  -7.06891  11.43773     8
  Pt  -2.91255  -9.42521  10.53771     8
  Pt  -1.45628 -11.78151   9.63768     8
  Pt -10.88149  -8.18140   3.81258     9
  Pt  -9.98146  -6.72513   6.16888     9
  Pt  -8.52518  -9.08143   5.26885     9
  Pt  -9.08143  -5.26885   8.52518     9
  Pt  -7.62516  -7.62516   7.62516     9
  Pt  -6.16888  -9.98146   6.72513     9
  Pt  -8.18140  -3.81258  10.88149     9
  Pt  -6.72513  -6.16888   9.98146     9
  Pt  -5.26885  -8.52518   9.08143     9
  Pt  -3.81258 -10.88149   8.18140     9
  Pt -11.78151  -9.63768  -1.45628     8
  Pt  -9.42521 -10.53771  -2.91255     8
  Pt  -7.06891 -11.43773  -4.36883     8
  Pt  -4.71261 -12.33776  -5.82510     8
  Pt  -2.35630 -13.23779  -7.28138     8
  Pt  -7.28138  -2.35630 -13.23779     8
  Pt  -5.82510  -4.71261 -12.33776     8
  Pt  -4.36883  -7.06891 -11.43773     8
  Pt  -2.91255  -9.42521 -10.53771     8
  Pt  -1.45628 -11.78151  -9.63768     8
  Pt -10.88149  -8.18140  -3.81258     9
  Pt  -9.98146  -6.72513  -6.16888     9
  Pt  -8.52518  -9.08143  -5.26885     9
  Pt  -9.08143  -5.26885  -8.52518     9
  Pt  -7.62516  -7.62516  -7.62516     9
  Pt  -6.16888  -9.98146  -6.72513     9
  Pt  -8.18140  -3.81258 -10.88149     9
  Pt  -6.72513  -6.16888  -9.98146     9
  Pt  -5.26885  -8.52518  -9.08143     9
  Pt  -3.81258 -10.88149  -8.18140     9
  Pt  -9.42521 -10.53771   0.00000     9
  Pt  -7.06891 -11.43773   1.45628     9
  Pt  -7.06891 -11.43773  -1.45628     9
  Pt  -4.71261 -12.33776   2.91255     9
  Pt  -4.71261 -12.33776   0.00000     9
  Pt  -4.71261 -12.33776  -2.91255     9
  Pt  -2.35630 -13.23779   4.36883     9
  Pt  -2.35630 -13.23779   1.45628     9
  Pt  -2.35630 -13.23779  -1.45628     9
  Pt  -2.35630 -13.23779  -4.36883     9
  Pt   5.82510   0.00000  14.13782     8
  Pt   2.91255   0.00000  14.13782     8
  Pt   0.00000   0.00000  14.13782     8
  Pt  -2.91255   0.00000  14.13782     8
  Pt  -5.82510   0.00000  14.13782     8
  Pt   4.36883   2.35630  13.23779     9
  Pt   1.45628   2.35630  13.23779     9
  Pt   2.91255   4.71261  12.33776     9
  Pt  -1.45628   2.35630  13.23779     9
  Pt   0.00000   4.71261  12.33776     9
  Pt   1.45628   7.06891  11.43773     9
  Pt  -4.36883   2.35630  13.23779     9
  Pt  -2.91255   4.71261  12.33776     9
  Pt  -1.45628   7.06891  11.43773     9
  Pt   0.00000   9.42521  10.53771     9
  Pt   4.36883  -2.35630  13.23779     9
  Pt   1.45628  -2.35630  13.23779     9
  Pt   2.91255  -4.71261  12.33776     9
  Pt  -1.45628  -2.35630  13.23779     9
  Pt   0.00000  -4.71261  12.33776     9
  Pt   1.45628  -7.06891  11.43773     9
  Pt  -4.36883  -2.35630  13.23779     9
  Pt  -2.91255  -4.71261  12.33776     9
  Pt  -1.45628  -7.06891  11.43773     9
  Pt   0.00000  -9.42521  10.53771     9
  Pt   5.82510   0.00000 -14.13782     8
  Pt   2.91255   0.00000 -14.13782     8
  Pt   0.00000   0.00000 -14.13782     8
  Pt  -2.91255   0.00000 -14.13782     8
  Pt  -5.82510   0.00000 -14.13782     8
  Pt   4.36883   2.35630 -13.23779     9
  Pt   1.45628   2.35630 -13.23779     9
  Pt   2.91255   4.71261 -12.33776     9
  Pt  -1.45628   2.35630 -13.23779     9
  Pt   0.00000   4.71261 -12.33776     9
  Pt   1.45628   7.06891 -11.43773     9
  Pt  -4.36883   2.35630 -13.23779     9
  Pt  -2.91255   4.71261 -12.33776     9
  Pt  -1.45628   7.06891 -11.43773     9
  Pt   0.00000   9.42521 -10.53771     9
  Pt   4.36883  -2.35630 -13.23779     9
  Pt   1.45628  -2.35630 -13.23779     9
  Pt   2.91255  -4.71261 -12.33776     9
  Pt  -1.45628  -2.35630 -13.23779     9
  Pt   0.00000  -4.71261 -12.33776     9
  Pt   1.45628  -7.06891 -11.43773     9
  Pt  -4.36883  -2.35630 -13.23779     9
  Pt  -2.91255  -4.71261 -12.33776     9
  Pt  -1.45628  -7.06891 -11.43773     9
  Pt   0.00000  -9.42521 -10.53771     9
